Circuit: * C:\Users\Mariano\Desktop\D+I\docencia\circuitos1\LTspice\Simulaciones\LTspice\ej6_g2_sim.asc

Direct Newton iteration for .op point succeeded.
.step a=0.1
.step a=10
.step a=20
.step a=30

Date: Fri Mar 15 15:00:19 2024
Total elapsed time: 0.094 seconds.

tnom = 27
temp = 27
method = modified trap
totiter = 640
traniter = 628
tranpoints = 281
accept = 267
rejected = 14
matrix size = 37
fillins = 49
solver = Normal
Avg thread counts: 2.5/4.4/4.5/2.5
Matrix Compiler1: 4.29 KB object code size  1.2/0.9/[0.7]
Matrix Compiler2: 3.80 KB object code size  0.6/0.6/[0.4]

