LTspice 24.1.9 for Windows
Circuit: C:\Users\Mariano\Desktop\D+I\docencia\PT4\DACR2R.net
Start Time: Wed Aug 27 11:16:33 2025
solver = Normal
Maximum thread count: 12
tnom = 27
temp = 27
method = modified trap
Direct Newton iteration for .op point succeeded.
Total elapsed time: 0.953 seconds.

Files loaded:
C:\Users\Mariano\Desktop\D+I\docencia\PT4\DACR2R.net
C:\Users\Mariano\Desktop\D+I\docencia\PT4\LM741.lib

