LTspice 24.1.9 for Windows
Circuit: C:\Users\Mariano\Desktop\D+I\docencia\PT4\LED.net
Start Time: Wed Aug 20 15:01:51 2025
solver = Normal
Maximum thread count: 12
tnom = 27
temp = 27
method = modified trap
.OP point found by inspection.
.step r=100
.step r=150
.step r=200
Total elapsed time: 0.202 seconds.

Files loaded:
C:\Users\Mariano\Desktop\D+I\docencia\PT4\LED.net
C:\Users\Mariano\AppData\Local\LTspice\lib\cmp\standard.dio
C:\Users\Mariano\Desktop\D+I\docencia\PT4\leds.lib

