LTspice 24.1.9 for Windows
Circuit: C:\Users\Mariano\Desktop\D+I\docencia\PT4\LM741.lib
Start Time: Tue Aug 19 14:11:06 2025
No analysis specified.