LTspice 24.1.9 for Windows
Circuit: C:\Users\Mariano\Desktop\D+I\docencia\PT4\rele-controlado.net
Start Time: Mon Sep 29 15:22:08 2025
solver = Normal
Maximum thread count: 12
tnom = 27
temp = 27
method = modified trap
Per .tran options, skipping operating point for transient analysis.
Total elapsed time: 1.138 seconds.

Files loaded:
C:\Users\Mariano\Desktop\D+I\docencia\PT4\rele-controlado.net
C:\Users\Mariano\AppData\Local\LTspice\lib\cmp\standard.dio
C:\Users\Mariano\Desktop\D+I\docencia\PT4\leds.lib

