LTspice 24.1.9 for Windows
Circuit: C:\Users\Mariano\Desktop\D+I\docencia\PT4\SIMULACION-LC.net
Start Time: Mon Sep  8 17:49:59 2025
solver = Normal
Maximum thread count: 12
tnom = 27
temp = 27
method = modified trap
.OP point found by inspection.
Total elapsed time: 14.672 seconds.

Files loaded:
C:\Users\Mariano\Desktop\D+I\docencia\PT4\SIMULACION-LC.net

