Circuit: * National Semiconductor's Customer Response Center

Fatal Error: No analysis request found.
