Circuit: * E:\Claudio\Docencia personal\LTSpice\Operacionales\comparadorLt1011.asc

Direct Newton iteration failed to find .op point.  (Use ".option noopiter" to skip.)
Starting Gmin stepping
Increasing initial diagonal Gmin to 100
Increasing initial diagonal Gmin to 1000
Gmin = 1000
Gmin = 107.374
Gmin = 11.5292
Gmin = 1.23794
vernier = 0.5
vernier = 0.25
vernier = 0.125
Gmin = 0.973846
vernier = 0.0625
vernier = 0.03125
vernier = 0.015625
vernier = 0.0078125
vernier = 0.00390625
Gmin = 1.00037
vernier = 0.00195313
vernier = 0.000976563
vernier = 0.000488281
Gmin = 0
Gmin = 0
Gmin stepping failed

Starting source stepping with srcstepmethod=0
Source Step = 3.0303%
Source Step = 33.3333%
Source Step = 63.6364%
Source Step = 93.9394%
Source stepping succeeded in finding the operating point.


Date: Thu May 04 14:53:30 2023
Total elapsed time: 62.052 seconds.

tnom = 27
temp = 27
method = modified trap
totiter = 4002601
traniter = 4000686
tranpoints = 2000221
accept = 2000172
rejected = 49
matrix size = 15
fillins = 5
solver = Normal
Matrix Compiler1: 794 bytes object code size  0.6/0.3/[0.2]
Matrix Compiler2: 1.56 KB object code size  0.7/0.4/[0.2]

