Circuit: * E:\Claudio\Docencia personal\LTSpice\Operacionales\derivador2.asc

Direct Newton iteration for .op point succeeded.
.step a=1e-013
.step a=1.59e-009

Date: Thu Aug 11 15:20:09 2022
Total elapsed time: 0.656 seconds.

tnom = 27
temp = 27
method = modified trap
totiter = 20469
traniter = 20457
tranpoints = 10020
accept = 10020
rejected = 0
matrix size = 38
fillins = 49
solver = Normal
Matrix Compiler1: 4.31 KB object code size  2.5/1.1/[1.0]
Matrix Compiler2: 3.89 KB object code size  1.1/1.5/[0.9]

