Circuit: * E:\Claudio\Docencia personal\LTSpice\Operacionales\diferencial2.asc

Direct Newton iteration for .op point succeeded.

Date: Wed Apr 27 19:32:53 2022
Total elapsed time: 0.263 seconds.

tnom = 27
temp = 27
method = trap
totiter = 11
traniter = 0
tranpoints = 0
accept = 0
rejected = 0
matrix size = 23
fillins = 10
solver = Normal
Matrix Compiler1: 1.88 KB object code size
Matrix Compiler2: 1.98 KB object code size
