Circuit: * E:\Claudio\Docencia personal\LTSpice\Operacionales\lab_amp_op.asc

Early termination of direct N-R iteration.
Direct Newton iteration failed to find .op point.  (Use ".option noopiter" to skip.)
Starting Gmin stepping
Increasing initial diagonal Gmin to 100
Increasing initial diagonal Gmin to 1000
Gmin = 1000
vernier = 0.5
vernier = 0.25
vernier = 0.125
vernier = 0.0625
Gmin = 836.601
vernier = 0.03125
vernier = 0.015625
vernier = 0.0078125
vernier = 0.00390625
Gmin = 822.125
vernier = 0.00195313
vernier = 0.000976563
vernier = 0.000488281
Gmin = 0
Gmin = 0
Gmin stepping succeeded in finding the operating point.

Heightened Def Con from 0.246313 ++++++++++++++++++++++++++++to 0.246313
Heightened Def Con from 0.246313 ++++++++++++++++++++++++to 0.246313
Heightened Def Con from 0.246313 ++++++++++++++++++++to 0.246313
Heightened Def Con from 0.479215 ++++++++++++++++++++++++++++to 0.479215
Heightened Def Con from 0.479215 ++++++++++++++++++++to 0.479215

Date: Tue May 09 11:35:27 2023
Total elapsed time: 3.368 seconds.

tnom = 27
temp = 27
method = modified trap
totiter = 164411
traniter = 162836
tranpoints = 66230
accept = 61978
rejected = 4377
matrix size = 135
fillins = 378
solver = Normal
Thread vector: 9.4/8.3[2] 6.8/5.2[2] 4.8/2.7[2] 0.6/1.5[1]  2592/500
Matrix Compiler1: 29.22 KB object code size  15.1/6.5/[4.4]
Matrix Compiler2: 17.89 KB object code size  2.6/2.7/[1.3]

