Circuit: * E:\Claudio\Docencia personal\LTSpice\Operacionales\lab_amp_op_2.asc

Direct Newton iteration for .op point succeeded.

Date: Tue May 09 11:37:21 2023
Total elapsed time: 0.984 seconds.

tnom = 27
temp = 27
method = modified trap
totiter = 123483
traniter = 123461
tranpoints = 59147
accept = 58205
rejected = 942
matrix size = 17
fillins = 5
solver = Normal
Matrix Compiler1: 1.05 KB object code size  0.8/0.4/[0.4]
Matrix Compiler2: 1.51 KB object code size  0.4/0.7/[0.3]

