LTspice 24.0.12 for Windows
Circuit: * E:\Claudio\Docencia personal\LTSpice\Operacionales\mcoffset1.asc
Start Time: Mon Nov 25 12:32:10 2024
solver = Normal
Maximum thread count: 8



.step a=-0.001
Direct Newton iteration for .op point succeeded.



























































































































































































































































































































































































































































































































































































































.step a=0.001





















































































































































































































































































































































































































































































































































































































tnom = 27
temp = 27
method = modified trap
Total elapsed time: 45.705 seconds.

