Circuit: * E:\Claudio\Docencia personal\LTSpice\Operacionales\op_generico_transpar3.asc

Direct Newton iteration for .op point succeeded.

Date: Tue Apr 26 13:43:49 2022
Total elapsed time: 15.200 seconds.

tnom = 27
temp = 27
method = modified trap
totiter = 400046
traniter = 400034
tranpoints = 200018
accept = 200018
rejected = 0
matrix size = 40
fillins = 34
solver = Normal
Matrix Compiler1: 5.04 KB object code size  2.1/1.1/[0.9]
Matrix Compiler2: 4.17 KB object code size  0.8/1.2/[0.7]

