Circuit: * E:\Claudio\Docencia personal\LTSpice\Operacionales\op_gen3.asc

Direct Newton iteration for .op point succeeded.

Date: Tue Apr 26 09:07:07 2022
Total elapsed time: 0.539 seconds.

tnom = 27
temp = 27
method = trap
totiter = 22
traniter = 0
tranpoints = 0
accept = 0
rejected = 0
matrix size = 41
fillins = 32
solver = Normal
Matrix Compiler1:     264 opcodes
Matrix Compiler2: 4.15 KB object code size
