Circuit: * E:\Claudio\Docencia personal\LTSpice\Operacionales\op_gen.asc

Direct Newton iteration for .op point succeeded.

Date: Thu Aug 11 15:22:38 2022
Total elapsed time: 0.280 seconds.

tnom = 27
temp = 27
method = trap
totiter = 19
traniter = 0
tranpoints = 0
accept = 0
rejected = 0
matrix size = 41
fillins = 32
solver = Normal
Matrix Compiler1: 4.75 KB object code size
Matrix Compiler2: 4.14 KB object code size
