LTspice 24.0.12 for Windows
Circuit: * E:\Claudio\Docencia personal\LTSpice\Operacionales\rectificador con ganancia.asc
Start Time: Wed Oct  9 10:08:30 2024
solver = Normal
Maximum thread count: 8
tnom = 27
temp = 27
method = modified trap
Total elapsed time: 0.657 seconds.

