Circuit: * E:\Claudio\Docencia personal\LTSpice\realimentación\parcial 1 e1 2024.asc

Direct Newton iteration for .op point succeeded.

Date: Wed Apr 03 11:13:52 2024
Total elapsed time: 0.336 seconds.

tnom = 27
temp = 27
method = trap
totiter = 6
traniter = 0
tranpoints = 0
accept = 0
rejected = 0
matrix size = 15
fillins = 6
solver = Normal
Matrix Compiler1:      51 opcodes
Matrix Compiler2: 1.12 KB object code size
