LTspice 24.1.9 for Windows
Circuit: D:\Docencia\docencia\Circuitos 1\Circuitos I - Claudio\Circuitos I Reservorio\LTSpice\Realimentación\parcial 1 2024.net
Start Time: Fri Mar 20 14:45:31 2026
solver = Normal
Maximum thread count: 12
tnom = 27
temp = 27
method = modified trap
Direct Newton iteration for .op point succeeded.
.step r=4700
.step r=0.001
Total elapsed time: 0.091 seconds.

Files loaded:
D:\Docencia\docencia\Circuitos 1\Circuitos I - Claudio\Circuitos I Reservorio\LTSpice\Realimentación\parcial 1 2024.net
C:\Users\Mariano\AppData\Local\LTspice\lib\cmp\standard.bjt

