Circuit: * E:\Claudio\Docencia personal\LTSpice\realimentación\parcial 2024 est3.sc.asc


Date: Tue Mar 26 13:02:06 2024
Total elapsed time: 0.240 seconds.

tnom = 27
temp = 27
method = trap
totiter = 0
traniter = 0
tranpoints = 0
accept = 0
rejected = 0
matrix size = 6
fillins = 3
solver = Normal

