Circuit: * E:\Claudio\Docencia personal\LTSpice\realimentaciµn\parcial 2024 est.asc

.step a=0
.step a=5.7e-010

Date: Wed Mar 27 11:37:43 2024
Total elapsed time: 0.392 seconds.

tnom = 27
temp = 27
method = trap
totiter = 0
traniter = 0
tranpoints = 0
accept = 0
rejected = 0
matrix size = 6
fillins = 3
solver = Normal

