Circuit: * E:\Claudio\Docencia personal\LTSpice\realimentación\parcial 2024 est.2asc.asc

.step a=0
.step a=5.7e-010

Date: Tue Mar 26 12:33:28 2024
Total elapsed time: 0.417 seconds.

tnom = 27
temp = 27
method = trap
totiter = 0
traniter = 0
tranpoints = 0
accept = 0
rejected = 0
matrix size = 8
fillins = 9
solver = Normal

