Circuit: * E:\Claudio\Docencia personal\LTSpice\realimentaciµn\parcial 1 e3 2024.asc

.step a=0
.step a=5.7e-010

Date: Thu Apr 04 12:10:46 2024
Total elapsed time: 0.388 seconds.

tnom = 27
temp = 27
method = trap
totiter = 0
traniter = 0
tranpoints = 0
accept = 0
rejected = 0
matrix size = 6
fillins = 3
solver = Normal

