Circuit: * E:\Claudio\Docencia personal\LTSpice\realimentaciµn\parcial 2024 est3.asc

.step a=0
.step a=5.7e-010

Date: Thu Apr 04 12:07:03 2024
Total elapsed time: 0.431 seconds.

tnom = 27
temp = 27
method = trap
totiter = 0
traniter = 0
tranpoints = 0
accept = 0
rejected = 0
matrix size = 8
fillins = 9
solver = Normal

