LTspice 24.0.12 for Windows
Circuit: * E:\Claudio\Docencia personal\LTSpice\realimentaciµn\perturbaciones2.asc
Start Time: Thu Oct  3 15:03:01 2024
solver = Normal
Maximum thread count: 8
tnom = 27
temp = 27
method = modified trap
.OP point found by inspection.
Total elapsed time: 0.778 seconds.

