LTspice 24.0.12 for Windows
Circuit: * E:\Claudio\Docencia personal\LTSpice\realimentaciµn\perturbaciones.asc
Start Time: Thu Oct  3 12:11:56 2024
solver = Normal
Maximum thread count: 8
tnom = 27
temp = 27
method = modified trap
.OP point found by inspection.
Total elapsed time: 0.556 seconds.

