Circuit: * E:\Claudio\Docencia personal\LTSpice\realimentaciµn\pruebametodo2_1.asc


Date: Wed Mar 20 15:19:56 2024
Total elapsed time: 0.232 seconds.

tnom = 27
temp = 27
method = trap
totiter = 0
traniter = 0
tranpoints = 0
accept = 0
rejected = 0
matrix size = 6
fillins = 1
solver = Normal

