Circuit: * E:\Claudio\Docencia personal\LTSpice\realimentación\pruebametodo2.asc

Direct Newton iteration for .op point succeeded.

Date: Tue Mar 19 13:05:51 2024
Total elapsed time: 0.252 seconds.

tnom = 27
temp = 27
method = trap
totiter = 3
traniter = 0
tranpoints = 0
accept = 0
rejected = 0
matrix size = 7
fillins = 0
solver = Normal
Matrix Compiler1: 250 bytes object code size
Matrix Compiler2: 461 bytes object code size
