Circuit: * E:\Claudio\Docencia personal\LTSpice\realimentaciµn\pruebametodo4.asc


Date: Wed Mar 20 15:22:23 2024
Total elapsed time: 0.228 seconds.

tnom = 27
temp = 27
method = trap
totiter = 0
traniter = 0
tranpoints = 0
accept = 0
rejected = 0
matrix size = 7
fillins = 2
solver = Normal

