Circuit: * E:\Claudio\Docencia personal\LTSpice\realimentaciˇn\real_T4xx.asc

Direct Newton iteration failed to find .op point.  (Use ".option noopiter" to skip.)
Starting Gmin stepping
Increasing initial diagonal Gmin to 100
Increasing initial diagonal Gmin to 1000
Gmin = 1000
vernier = 0.5
vernier = 0.25
vernier = 0.125
vernier = 0.0625
Gmin = 836.601
vernier = 0.03125
vernier = 0.015625
vernier = 0.0078125
vernier = 0.00390625
Gmin = 822.125
vernier = 0.00195313
vernier = 0.000976563
vernier = 0.000488281
Gmin = 0
Gmin = 0
Gmin stepping failed

Starting source stepping with srcstepmethod=0
Source Step = 3.0303%
Source Step = 33.3333%
Source Step = 63.6364%
Source Step = 93.9394%
Source stepping succeeded in finding the operating point.


Date: Mon Dec 11 14:54:26 2023
Total elapsed time: 0.407 seconds.

tnom = 27
temp = 27
method = trap
totiter = 2015
traniter = 0
tranpoints = 0
accept = 0
rejected = 0
matrix size = 44
fillins = 56
solver = Normal
Matrix Compiler1:     247 opcodes
Matrix Compiler2: off  [0.6]/2.5/1.5

