Circuit: * E:\Claudio\Docencia personal\LTSpice\realimentación\real_T1.asc

Direct Newton iteration for .op point succeeded.

Date: Fri Mar 10 09:56:55 2023
Total elapsed time: 0.315 seconds.

tnom = 27
temp = 27
method = trap
totiter = 4
traniter = 0
tranpoints = 0
accept = 0
rejected = 0
matrix size = 15
fillins = 5
solver = Normal
Matrix Compiler1:      52 opcodes
Matrix Compiler2: 1.14 KB object code size
