Circuit: * E:\Claudio\Docencia personal\LTSpice\realimentación\real_T3.asc

Direct Newton iteration for .op point succeeded.

Date: Fri Mar 10 10:42:46 2023
Total elapsed time: 0.255 seconds.

tnom = 27
temp = 27
method = trap
totiter = 3
traniter = 0
tranpoints = 0
accept = 0
rejected = 0
matrix size = 11
fillins = 1
solver = Normal
Matrix Compiler1: 270 bytes object code size
Matrix Compiler2: 703 bytes object code size
