Circuit: * E:\Claudio\Docencia personal\LTSpice\realimentación\real_T4.asc

Direct Newton iteration for .op point succeeded.

Date: Mon Mar 13 10:57:59 2023
Total elapsed time: 0.256 seconds.

tnom = 27
temp = 27
method = trap
totiter = 4
traniter = 0
tranpoints = 0
accept = 0
rejected = 0
matrix size = 19
fillins = 8
solver = Normal
Matrix Compiler1: 1.08 KB object code size
Matrix Compiler2: 1.43 KB object code size
