Circuit: * E:\Claudio\Docencia personal\LTSpice\realimentación\real_T2.asc

Direct Newton iteration for .op point succeeded.

Date: Fri Mar 10 10:31:21 2023
Total elapsed time: 0.240 seconds.

tnom = 27
temp = 27
method = trap
totiter = 3
traniter = 0
tranpoints = 0
accept = 0
rejected = 0
matrix size = 11
fillins = 3
solver = Normal
Matrix Compiler1: 450 bytes object code size
Matrix Compiler2: 753 bytes object code size
