LTspice 24.1.9 for Windows
Circuit: D:\Docencia\docencia\Circuitos 1\Circuitos I - Claudio\Circuitos I Reservorio\LTSpice\Realimentación\real_T2.net
Start Time: Fri Mar 20 14:48:56 2026
solver = Normal
Maximum thread count: 12
tnom = 27
temp = 27
method = modified trap
Direct Newton iteration for .op point succeeded.
Total elapsed time: 0.029 seconds.

Files loaded:
D:\Docencia\docencia\Circuitos 1\Circuitos I - Claudio\Circuitos I Reservorio\LTSpice\Realimentación\real_T2.net

