Circuit: * E:\Claudio\Docencia personal\LTSpice\realimentación\real_T4x.asc

Direct Newton iteration for .op point succeeded.

Date: Mon Dec 11 09:50:06 2023
Total elapsed time: 0.396 seconds.

tnom = 27
temp = 27
method = trap
totiter = 4
traniter = 0
tranpoints = 0
accept = 0
rejected = 0
matrix size = 15
fillins = 7
solver = Normal
Matrix Compiler1:      55 opcodes
Matrix Compiler2: 1.16 KB object code size
