Circuit: * E:\Claudio\Docencia personal\LTSpice\realimentación\Transferencia3.asc

Direct Newton iteration for .op point succeeded.

Date: Thu Mar 09 12:55:22 2023
Total elapsed time: 0.143 seconds.

tnom = 27
temp = 27
method = trap
totiter = 3
traniter = 0
tranpoints = 0
accept = 0
rejected = 0
matrix size = 9
fillins = 2
solver = Normal
Matrix Compiler1: 368 bytes object code size
Matrix Compiler2: 627 bytes object code size
