Circuit: * E:\Claudio\Docencia personal\LTSpice\realimentación\Transferencia4.asc

Direct Newton iteration for .op point succeeded.

Date: Thu Mar 09 15:26:11 2023
Total elapsed time: 0.324 seconds.

tnom = 27
temp = 27
method = trap
totiter = 4
traniter = 0
tranpoints = 0
accept = 0
rejected = 0
matrix size = 15
fillins = 4
solver = Normal
Matrix Compiler1:      48 opcodes
Matrix Compiler2: 1.14 KB object code size
