Circuit: * E:\Claudio\Docencia personal\LTSpice\realimentaciµn\Transferencia2.asc


Date: Wed Mar 08 13:41:50 2023
Total elapsed time: 0.169 seconds.

tnom = 27
temp = 27
method = trap
totiter = 0
traniter = 0
tranpoints = 0
accept = 0
rejected = 0
matrix size = 7
fillins = 6
solver = Normal

