Circuit: * E:\Claudio\Docencia personal\LTSpice\realimentación\Transferencia1.asc

Direct Newton iteration for .op point succeeded.

Date: Thu Mar 09 11:37:38 2023
Total elapsed time: 0.147 seconds.

tnom = 27
temp = 27
method = trap
totiter = 3
traniter = 0
tranpoints = 0
accept = 0
rejected = 0
matrix size = 14
fillins = 5
solver = Normal
Matrix Compiler1: 798 bytes object code size
Matrix Compiler2: 1.03 KB object code size
