Circuit: * C:\Users\Mariano\Desktop\segundoparcial_2023\eje2_2023.asc

Direct Newton iteration for .op point succeeded.

Date: Mon May 22 13:24:16 2023
Total elapsed time: 0.418 seconds.

tnom = 27
temp = 27
method = modified trap
totiter = 52060
traniter = 52042
tranpoints = 13858
accept = 9590
rejected = 4268
matrix size = 68
fillins = 134
solver = Normal
Avg thread counts: 1.0/1.1/1.1/1.0
Matrix Compiler1: 10.27 KB object code size  2.2/1.2/[0.7]
Matrix Compiler2: 8.01 KB object code size  0.9/1.0/[0.6]

