Circuit: * C:\Users\Mariano\Desktop\eje2_sim_i.asc

Direct Newton iteration for .op point succeeded.

Date: Wed Apr  5 18:37:30 2023
Total elapsed time: 0.022 seconds.

tnom = 27
temp = 27
method = trap
totiter = 3
traniter = 0
tranpoints = 0
accept = 0
rejected = 0
matrix size = 8
fillins = 4
solver = Normal
Avg thread counts: 1.0/1.0/1.0/1.0
Matrix Compiler1: 412 bytes object code size
Matrix Compiler2: 562 bytes object code size
