Circuit: * C:\Users\Mariano\Desktop\circuitos1\ltspice\ej6_g2_C_sim.asc

Fatal Error: Unknown subcircuit called in:
   xu1 n004 n002 n001 n005 n003 lm741/ns
