LTspice 24.1.9 for Windows
Circuit: C:\Users\Mariano\Desktop\Estabilidad-Laplace.net
Start Time: Thu Mar 26 11:45:11 2026
solver = Normal
Maximum thread count: 12
tnom = 27
temp = 27
method = modified trap
.OP point found by inspection.
Total elapsed time: 0.093 seconds.

Files loaded:
C:\Users\Mariano\Desktop\Estabilidad-Laplace.net

