
   --- Expanded Deck Component Count ---
C's 1
D's 2
Q's 20
R's 11
V's 3
tot: 37


    --- Expanded Netlist ---
* C:\Claudio\Docencia personal\LTSpice\741\741disc_zio.asc
q1 n002 n005 n007 0 2n3904
d1 n007 n010 cmdsh2-3
q2 n002 0 n008 0 2n3904
d2 n008 n011 cmdsh2-3
q3 n014 n012 n010 0 2n3906
q4 n015 n012 n011 0 2n3906
q5 n014 n017 n019 0 2n3904
q6 n015 n017 n020 0 2n3904
q7 n001 n014 n017 0 2n3904
q8 n002 n002 n001 0 2n3906
r1 n019 n024 1k
r2 n017 n024 51k
r3 n020 n024 1k
q9 n012 n002 n001 0 2n3906
q10 n012 n016 n023 0 2n3904
r4 n023 n024 4.7k
q11 n016 n016 n024 0 2n3904
r5 n003 n016 39k
q12 n003 n003 n001 0 2n3906
v1 n001 0 12
v2 0 n024 12
q13 n004 n003 n001 0 2n3906
q14 n001 n004 n006 0 2n3904
q15 n004 n006 vo 0 2n3904
q16 n013 n015 n021 0 2n3904
q17 n013 n021 n022 0 2n3904
q18 n004 n009 n013 0 2n3904
q20 n024 n013 n018 0 2n3906
q22 n015 n022 n024 0 2n3904
r7 n004 n009 4.7k
r8 n009 n013 7.5k
r9 n006 vo 24
r10 vo n018 51
r11 n022 n024 51
r12 n021 n024 51k
c1 n004 n015 33p
v3 n005 0 -272.41µv ac 1 0
.model 2n3906 pnp(is=1e-14 vaf=100 bf=200 ikf=0.4 xtb=1.5 br=4 cjc=4.5e-12 cje=10e-12 rb=20 rc=0.1 re=0.1 tr=250e-9 tf=350e-12 itf=1 vtf=2 xtf=3 vceo=40 icrating=200m mfg=philips)
.model 2n3904 npn(is=1e-14 vaf=100 bf=300 ikf=0.4 xtb=1.5 br=4 cjc=4e-12 cje=8e-12 rb=20 rc=0.1 re=0.1 tr=250e-9 tf=350e-12 itf=1 vtf=2 xtf=3 vceo=40 icrating=200m mfg=philips)
.model cmdsh2-3 d(is=210na rs=.5 n=1.09 cjo=50p m=.5 eg=.69 xti=2 iave=200m vpk=30 mfg=central type=schottky)
.tf v(vo) v3
.end

Direct Newton iteration failed to find .op point.  (Use ".option noopiter" to skip.)
Starting Gmin stepping
Gmin = 10
Gmin = 1.07374
Gmin = 0.115292
Gmin = 0.0123794
Gmin = 0.00132923
Gmin = 0.000142725
Gmin = 1.5325e-005
Gmin = 1.6455e-006
Gmin = 1.76685e-007
Gmin = 1.89714e-008
Gmin = 2.03704e-009
Gmin = 2.18725e-010
Gmin = 2.34854e-011
Gmin = 2.52173e-012
Gmin = 2.70769e-013
Gmin = 0
Gmin stepping failed

Starting source stepping with srcstepmethod=0
Source Step = 3.0303%
Source Step = 33.3333%
Source Step = 63.6364%
Source Step = 93.9394%
Source stepping succeeded in finding the operating point.


Date: Thu Oct 31 17:48:22 2019
Total elapsed time: 0.157 seconds.

tnom = 27
temp = 27
method = trap
totiter = 1184
traniter = 0
tranpoints = 0
accept = 0
rejected = 0
matrix size = 90
fillins = 96
solver = Normal
Thread vector: 14.1/10.4[2] 0.0/0.0[0] 3.0/2.0[2] 0.9/2.0[1]  2592/500
Matrix Compiler1: 13,0 KB object code size
Matrix Compiler2:     761 opcodes  2.7/[2.8]/5.9


