Circuit: * E:\Claudio\Docencia personal\LTSpice\741\741disc_deajuste.asc

Direct Newton iteration failed to find .op point.  (Use ".option noopiter" to skip.)
Starting Gmin stepping
Gmin = 10
Gmin = 1.07374
Gmin = 0.115292
Gmin = 0.0123794
Gmin = 0.00132923
Gmin = 0.000142725
Gmin = 1.5325e-005
Gmin = 1.6455e-006
Gmin = 1.76685e-007
Gmin = 1.89714e-008
Gmin = 2.03704e-009
Gmin = 2.18725e-010
Gmin = 2.34854e-011
Gmin = 2.52173e-012
Gmin = 2.70769e-013
Gmin = 0
Gmin stepping succeeded in finding the operating point.

Direct Newton iteration failed to find .op point.  (Use ".option noopiter" to skip.)
Starting Gmin stepping
Gmin = 10
Gmin = 1.07374
Gmin = 0.115292
Gmin = 0.0123794
Gmin = 0.00132923
Gmin = 0.000142725
Gmin = 1.5325e-005
Gmin = 1.6455e-006
Gmin = 1.76685e-007
Gmin = 1.89714e-008
Gmin = 2.03704e-009
Gmin = 2.18725e-010
Gmin = 2.34854e-011
Gmin = 2.52173e-012
Gmin = 2.70769e-013
Gmin = 0
Gmin stepping succeeded in finding the operating point.


Date: Mon Mar 28 12:48:31 2022
Total elapsed time: 0.328 seconds.

tnom = 27
temp = 27
method = trap
totiter = 2853
traniter = 0
tranpoints = 0
accept = 0
rejected = 0
matrix size = 90
fillins = 94
solver = Normal
Thread vector: 4.8/3.7[2] 0.0/0.0[0] 1.7/1.6[1] 0.3/0.7[1]  2592/500
Matrix Compiler1: 12.93 KB object code size  3.4/2.2/[1.2]
Matrix Compiler2: 10.07 KB object code size  1.7/1.9/[0.9]

