Circuit: * E:\Claudio\Docencia personal\LTSpice\Operacionales\741\741disc_sr.asc

Direct Newton iteration failed to find .op point.  (Use ".option noopiter" to skip.)
Starting Gmin stepping
Gmin = 10
Gmin = 1.07374
Gmin = 0.115292
Gmin = 0.0123794
Gmin = 0.00132923
Gmin = 0.000142725
Gmin = 1.5325e-005
Gmin = 1.6455e-006
Gmin = 1.76685e-007
vernier = 0.5
vernier = 0.25
vernier = 0.125
vernier = 0.0625
vernier = 0.03125
vernier = 0.015625
Gmin = 1.7463e-007
vernier = 0.0208333
vernier = 0.0104167
vernier = 0.00520833
Gmin = 1.7215e-007
vernier = 0.00694444
vernier = 0.00925925
Gmin = 1.68799e-007
vernier = 0.0123457
vernier = 0.0164609
Gmin = 1.63593e-007
vernier = 0.0219478
Gmin = 1.5573e-007
vernier = 0.0292638
vernier = 0.0390184
Gmin = 1.43389e-007
vernier = 0.0520245
vernier = 0.0693659
Gmin = 1.25741e-007
vernier = 0.0924879
Gmin = 1.0234e-007
vernier = 0.123317
vernier = 0.164423
Gmin = 7.26016e-008
vernier = 0.21923
vernier = 0.292307
Gmin = 4.22333e-008
vernier = 0.389743
Gmin = 1.8233e-008
vernier = 0.519657
vernier = 0.692876
Gmin = 4.62454e-009
vernier = 0.923834
vernier = 1
Gmin = 6.18059e-010
Gmin = 6.63636e-011
Gmin = 7.12573e-012
Gmin = 7.6512e-013
Gmin = 0
Gmin = 0
Gmin stepping succeeded in finding the operating point.


Date: Thu Aug 15 15:18:23 2024
Total elapsed time: 64.797 seconds.

tnom = 27
temp = 27
method = modified trap
totiter = 1001926
traniter = 1000034
tranpoints = 500018
accept = 500018
rejected = 0
matrix size = 90
fillins = 104
solver = Normal
Thread vector: 4.8/5.1[1] 5.5/4.9[2] 1.6/3.8[1] 0.3/1.0[1]  2592/500
Matrix Compiler1: 13.81 KB object code size  6.4/3.1/[2.4]
Matrix Compiler2: 10.30 KB object code size  2.0/2.8/[0.8]

