LTspice 24.0.12 for Windows
Circuit: * E:\Claudio\Docencia personal\LTSpice\Operacionales\741\LM741_1 vcc.asc
Start Time: Mon Dec  2 16:02:56 2024
Warning: Multiple definitions of model "2scr375p" Type: BJT
Warning: Multiple definitions of model "bc857b" Type: BJT
Warning: Multiple definitions of model "bc847c" Type: BJT
Warning: Multiple definitions of model "bc847b" Type: BJT
solver = Normal
Maximum thread count: 8
tnom = 27
temp = 27
method = modified trap
Direct Newton iteration failed to find .op point.  (Use ".option noopiter" to skip.)
Starting Gmin stepping
Gmin = 10
Gmin = 1.07374
Gmin = 0.115292
Gmin = 0.0123794
Gmin = 0.00132923
Gmin = 0.000142725
Gmin = 1.5325e-05
Gmin = 1.6455e-06
vernier = 0.5
vernier = 0.25
vernier = 0.125
Gmin = 6.33769e-07
vernier = 0.166667
vernier = 0.222222
Gmin = 4.28534e-07
vernier = 0.111111
vernier = 0.148148
Gmin = 3.41031e-07
vernier = 0.197531
vernier = 0.263374
Gmin = 2.09033e-07
vernier = 0.351165
Gmin = 9.77614e-08
vernier = 0.46822
vernier = 0.624294
Gmin = 2.81694e-08
vernier = 0.832392
vernier = 1
Gmin = 4.33885e-09
Gmin = 4.6588e-10
Gmin = 5.00235e-11
Gmin = 5.37123e-12
Gmin = 5.76732e-13
Gmin = 0
Gmin stepping succeeded in finding the operating point.

Total elapsed time: 21.852 seconds.

