LTspice 24.0.12 for Windows
Circuit: * E:\Claudio\Docencia personal\LTSpice\Osciladores\cistal1meg.asc
Start Time: Fri Nov  8 13:34:47 2024
Warning: Multiple definitions of model "2scr375p" Type: BJT
Warning: Multiple definitions of model "bc857b" Type: BJT
Warning: Multiple definitions of model "bc847c" Type: BJT
Warning: Multiple definitions of model "bc847b" Type: BJT
solver = Normal
Maximum thread count: 8
tnom = 27
temp = 27
method = modified trap
.OP point found by inspection.
Total elapsed time: 64.329 seconds.

