Circuit: * E:\Claudio\Docencia personal\LTSpice\Osciladores\cistal1megx.asc

Number of points reduced from 100000 to 65535.

Date: Tue Jun 07 11:50:29 2022
Total elapsed time: 0.672 seconds.

tnom = 27
temp = 27
method = trap
totiter = 0
traniter = 0
tranpoints = 0
accept = 0
rejected = 0
matrix size = 4
fillins = 0
solver = Normal

