
   --- Expanded Deck Component Count ---
A's 2
B's 3
C's 10
D's 2
M's 2
R's 5
V's 2
tot: 26


    --- Expanded Netlist ---
* C:\Claudio\Docencia personal\LTSpice\Osciladores\cuadrada3.asc
v1 n003 0 12
v2 0 n005 12
r1 n002 n001 910
c1 n001 0 1”
r3 n002 n004 10k
r4 0 n004 10k
a:u1:1 0 u1:n004 0 0 0 0 u1:x 0 ota g=150u iout=7u cout=28p en=9.8n enk=4 vhigh=1e308 vlow=-1e308
a:u1:2 n001 n004 0 0 0 0 0 0 ota g=0 in=.1p ink=70
c:u1:2 u1:n004 0 .75p rpar=100k noiseless
r:u1:1 n003 u1:x 10g noiseless 
r:u1:2 u1:x n005 10g noiseless 
m:u1:1 n003 u1:n005 n002 n002 u1:n temp=27
m:u1:2 n005 u1:n005 n002 n002 u1:p temp=27
d:u1:1 n002 u1:x u1:x 
c:u1:3 u1:n005 0 .075p rpar=1meg noiseless
d:u1:4 n001 n004 u1:di 
c:u1:5 n001 n004 1p rpar=80meg 
c:u1:7 n003 n002 .2p 
c:u1:8 n002 n005 .2p 
b:u1:1 0 u1:n004 i=10u*dnlim(uplim(v(n004),v(n003)-.9,.3), v(n005)+.9, .3)+1n*v(n004)
b:u1:2 u1:n004 0 i=10u*dnlim(uplim(v(n001),v(n003)-.899,.3), v(n005)+.899, .3)+1n*v(n001)
b:u1:3 0 u1:n005 i=1u*dnlim(uplim(v(u1:x),v(n003)-.9,.5), v(n005)+.9,.5)+1p*v(u1:x)
c:u1:9 n003 n004 .5p rpar=1.12t noiseless
c:u1:4 n004 n005 .5p rpar=1.12t noiseless
c:u1:6 n001 n005 .5p rpar=1.12t noiseless
c:u1:10 n003 n001 .5p rpar=1.12t noiseless
.model u1:di d(ron=1.15k roff=1g vfwd=1 vrev=1 epsilon=1 revepsilon=1 noiseless)
.model u1:p vdmos(vto=300m kp=50m pchan)
.model u1:n vdmos(vto=-300m kp=50m)
.model u1:x d(ron=10k roff=1t vfwd=.82 vrev=.82 epsilon=.1 revepsilon=.1)
.tran 0 150m 0 .01m
.end

Direct Newton iteration for .op point succeeded.

Date: Tue Nov 06 16:19:39 2018
Total elapsed time: 1.076 seconds.

tnom = 27
temp = 27
method = modified trap
totiter = 49542
traniter = 49512
tranpoints = 19211
accept = 17739
rejected = 1472
matrix size = 10
fillins = 5
solver = Normal
Matrix Compiler1: 808 bytes object code size  0.4/0.3/[0.1]
Matrix Compiler2: off  [0.3]/0.3/0.7


