
   --- Expanded Deck Component Count ---
D's 1
R's 2
V's 2
tot: 5


    --- Expanded Netlist ---
* C:\Claudio\Docencia personal\LTSpice\Osciladores\Draft2.asc
v1 n002 0 3.33
v2 n001 0 10
r1 n003 n002 1.82k
r2 n001 n003 200
d1 n001 n003 1n4148
.model 1n4148 d(is=2.52n rs=.568 n=1.752 cjo=4p m=.4 tt=20n iave=200m vpk=75 mfg=onsemi type=silicon)
.op
.end

Direct Newton iteration for .op point succeeded.
Semiconductor Device Operating Points:
                        --- Diodes ---
Name:      d1
Model:   1n4148
Id:      5.65e-04
Vd:      5.59e-01
Req:     8.02e+01
CAP:     2.55e-10



Date: Tue Jun 05 11:22:27 2018
Total elapsed time: 0.015 seconds.

tnom = 27
temp = 27
method = trap
totiter = 8
traniter = 0
tranpoints = 0
accept = 0
rejected = 0
matrix size = 6
fillins = 0
solver = Normal
Matrix Compiler1: 182 bytes object code size
Matrix Compiler2: 408 bytes object code size

