LTspice 24.0.12 for Windows
Circuit: * E:\Claudio\Docencia personal\LTSpice\Osciladores\lc2.asc
Start Time: Fri Nov  8 09:39:40 2024
solver = Normal
Maximum thread count: 8
tnom = 27
temp = 27
method = modified trap
.OP point found by inspection.
Total elapsed time: 0.273 seconds.

