LTspice 24.0.12 for Windows
Circuit: * E:\Claudio\Docencia personal\LTSpice\Osciladores\negistor.asc
Start Time: Fri Mar 21 14:53:33 2025
Warning: Multiple definitions of model "2scr375p" Type: BJT
Warning: Multiple definitions of model "bc857b" Type: BJT
Warning: Multiple definitions of model "bc847c" Type: BJT
Warning: Multiple definitions of model "bc847b" Type: BJT
solver = Normal
Maximum thread count: 8
tnom = 27
temp = 27
method = modified trap
WARNING: Node NC_03 is floating.

WARNING: Less than two connections to node nc_01.  This node is used by q1.
WARNING: Less than two connections to node nc_02.  This node is used by v1.
WARNING: Less than two connections to node nc_03.  This node is used by v1.
.OP point found by inspection.
Total elapsed time: 0.190 seconds.

