LTspice 24.0.12 for Windows
Circuit: * E:\Claudio\Docencia personal\LTSpice\Osciladores\osc res neg.asc
Start Time: Fri Mar 21 14:51:59 2025
solver = Normal
Maximum thread count: 8
tnom = 27
temp = 27
method = modified trap
U1:1:viak: Missing value, assumed 0V @ DC
U1:1:vigf: Missing value, assumed 0V @ DC
.OP point found by inspection.
Total elapsed time: 1.180 seconds.

