LTspice 24.0.12 for Windows
Circuit: * E:\Claudio\Docencia personal\LTSpice\Osciladores\oscscr2.asc
Start Time: Fri Mar  7 13:27:47 2025
solver = Normal
Maximum thread count: 8
tnom = 27
temp = 27
method = modified trap
U1:1:viak: Missing value, assumed 0V @ DC
U1:1:vigf: Missing value, assumed 0V @ DC
.OP point found by inspection.
Total elapsed time: 3.065 seconds.

