Circuit: * E:\Claudio\Docencia personal\LTSpice\Osciladores\oscscr1.asc

u1:1:vigf: Missing value, assumed 0V @ DC
u1:1:viak: Missing value, assumed 0V @ DC
.OP point found by inspection.

Date: Fri Feb 17 13:53:09 2023
Total elapsed time: 1.344 seconds.

tnom = 27
temp = 27
method = trap
totiter = 200042
traniter = 0
tranpoints = 0
accept = 0
rejected = 0
matrix size = 36
fillins = 16
solver = Normal
Matrix Compiler1: 1.83 KB object code size  1.2/0.7/[0.4]
Matrix Compiler2: 2.61 KB object code size  0.6/1.3/[0.3]

