LTspice 24.0.12 for Windows
Circuit: * E:\Claudio\Docencia personal\LTSpice\Osciladores\pwm.asc
Start Time: Fri Mar  7 13:43:33 2025
solver = Normal
Maximum thread count: 8



Instance "m:u2:1": Length shorter than recommended for a level 2 MOSFET.
Instance "m:u2:2": Length shorter than recommended for a level 2 MOSFET.
Instance "m:u2:5": Length shorter than recommended for a level 2 MOSFET.
Instance "m:u2:6": Length shorter than recommended for a level 2 MOSFET.
Per .tran options, skipping operating point for transient analysis.
.step a=0
Changing Tseed to 1e-11



.step a=1
tnom = 27
temp = 27
method = modified trap
.step a=2
Total elapsed time: 26.113 seconds.

