Circuit: * E:\Claudio\Docencia personal\LTSpice\Osciladores\wien6.asc

Direct Newton iteration for .op point succeeded.

Date: Fri May 10 11:44:37 2024
Total elapsed time: 5.860 seconds.

tnom = 27
temp = 27
method = modified trap
totiter = 602990
traniter = 602974
tranpoints = 300082
accept = 300063
rejected = 19
matrix size = 20
fillins = 18
solver = Normal
Matrix Compiler1: 1.97 KB object code size  1.2/0.6/[0.4]
Matrix Compiler2: 2.11 KB object code size  0.6/0.8/[0.5]

