Circuit: * E:\Claudio\Docencia personal\LTSpice\Osciladores\wien4.asc

Direct Newton iteration failed to find .op point.  (Use ".option noopiter" to skip.)
Starting Gmin stepping
Gmin = 10
Gmin = 1.07374
Gmin = 0.115292
Gmin = 0.0123794
Gmin = 0.00132923
Gmin = 0.000142725
Gmin = 1.5325e-005
Gmin = 1.6455e-006
Gmin = 1.76685e-007
Gmin = 1.89714e-008
Gmin = 2.03704e-009
Gmin = 2.18725e-010
Gmin = 2.34854e-011
Gmin = 2.52173e-012
Gmin = 2.70769e-013
Gmin = 0
Gmin stepping succeeded in finding the operating point.


Date: Fri May 10 11:41:15 2024
Total elapsed time: 2.626 seconds.

tnom = 27
temp = 27
method = modified trap
totiter = 300537
traniter = 300178
tranpoints = 150072
accept = 150053
rejected = 19
matrix size = 15
fillins = 10
solver = Normal
Matrix Compiler1: 1.33 KB object code size  0.9/0.5/[0.3]
Matrix Compiler2: 1.58 KB object code size  0.3/0.3/[0.2]

