Circuit: * E:\Claudio\Docencia personal\LTSpice\Osciladores\wien3.asc

Direct Newton iteration for .op point succeeded.

Date: Tue May 03 15:54:30 2022
Total elapsed time: 0.571 seconds.

tnom = 27
temp = 27
method = trap
totiter = 21
traniter = 0
tranpoints = 0
accept = 0
rejected = 0
matrix size = 13
fillins = 12
solver = Normal
Matrix Compiler1:      63 opcodes
Matrix Compiler2: 1.45 KB object code size
