LTspice 24.1.9 for Windows
Circuit: C:\Users\Mariano\Desktop\eje1_p1_2026.net
Start Time: Tue Apr 14 13:39:26 2026
solver = Normal
Maximum thread count: 12
tnom = 27
temp = 27
method = modified trap
Direct Newton iteration for .op point succeeded.
Total elapsed time: 0.048 seconds.

Files loaded:
C:\Users\Mariano\Desktop\eje1_p1_2026.net
C:\Users\Mariano\AppData\Local\LTspice\lib\cmp\standard.bjt

