Circuit: * E:\Claudio\Docencia personal\LTSpice\Fuentes\Draft2.asc

.OP point found by inspection.

Date: Tue Jun 13 12:31:21 2023
Total elapsed time: 0.357 seconds.

tnom = 27
temp = 27
method = trap
totiter = 28001
traniter = 0
tranpoints = 0
accept = 0
rejected = 0
matrix size = 4
fillins = 0
solver = Normal
Matrix Compiler1:       6 opcodes  0.1/[0.0]/0.1
Matrix Compiler2: off  [0.1]/0.1/0.1

