Circuit: * E:\Claudio\Docencia personal\LTSpice\Fuentes\fuente clase 3_b.asc

Direct Newton iteration failed to find .op point.  (Use ".option noopiter" to skip.)
Starting Gmin stepping
Gmin = 10
Gmin = 1.07374
Gmin = 0.115292
Gmin = 0.0123794
Gmin = 0.00132923
Gmin = 0.000142725
Gmin = 1.5325e-005
Gmin = 1.6455e-006
Gmin = 1.76685e-007
Gmin = 1.89714e-008
Gmin = 2.03704e-009
Gmin = 2.18725e-010
Gmin = 2.34854e-011
Gmin = 2.52173e-012
Gmin = 2.70769e-013
Gmin = 0
Gmin stepping succeeded in finding the operating point.


Date: Wed May 29 13:19:38 2024
Total elapsed time: 0.387 seconds.

tnom = 27
temp = 27
method = trap
totiter = 16641
traniter = 0
tranpoints = 0
accept = 0
rejected = 0
matrix size = 33
fillins = 26
solver = Normal
Matrix Compiler1:     227 opcodes  1.0/0.4/[0.3]
Matrix Compiler2: 3.33 KB object code size  0.4/0.5/[0.3]

