Circuit: * E:\Claudio\Docencia personal\LTSpice\Fuentes\fuente clase 2.asc

Early termination of direct N-R iteration.
Direct Newton iteration failed to find .op point.  (Use ".option noopiter" to skip.)
Starting Gmin stepping
Increasing initial diagonal Gmin to 100
Increasing initial diagonal Gmin to 1000
Gmin = 1000
vernier = 0.5
vernier = 0.25
vernier = 0.125
vernier = 0.0625
Gmin = 836.601
vernier = 0.03125
vernier = 0.015625
vernier = 0.0078125
vernier = 0.00390625
Gmin = 822.125
vernier = 0.00195313
vernier = 0.000976563
vernier = 0.000488281
Gmin = 0
Gmin = 0
Gmin stepping failed

Starting source stepping with srcstepmethod=0
Source Step = 3.0303%
Source Step = 33.3333%
Source Step = 63.6364%
Source Step = 93.9394%
Source stepping succeeded in finding the operating point.

Changing Tseed to 1e-010

Date: Wed May 29 12:43:35 2024
Total elapsed time: 4.530 seconds.

tnom = 27
temp = 27
method = modified trap
totiter = 204800
traniter = 202967
tranpoints = 101480
accept = 100567
rejected = 912
matrix size = 46
fillins = 116
solver = Normal
Matrix Compiler1: 10.84 KB object code size  3.9/1.9/[1.8]
Matrix Compiler2: 5.80 KB object code size  1.7/2.3/[1.1]

