Circuit: * E:\Claudio\Docencia personal\LTSpice\Fuentes\fuente clase 3.asc

Early termination of direct N-R iteration.
Direct Newton iteration failed to find .op point.  (Use ".option noopiter" to skip.)
Starting Gmin stepping
Increasing initial diagonal Gmin to 100
Increasing initial diagonal Gmin to 1000
Gmin = 1000
vernier = 0.5
vernier = 0.25
vernier = 0.125
vernier = 0.0625
Gmin = 836.601
vernier = 0.03125
vernier = 0.015625
vernier = 0.0078125
vernier = 0.00390625
Gmin = 822.125
vernier = 0.00195313
vernier = 0.000976563
vernier = 0.000488281
Gmin = 0
Gmin = 0
Gmin stepping failed

Starting source stepping with srcstepmethod=0
Source Step = 3.0303%
Source Step = 33.3333%
Source Step = 63.6364%
Source Step = 88.6364%
vernier = 0.0625
Source Step = 87.8995%
Source Step = 87.9291%
Source Step = 87.9587%
Source Step = 87.9883%
Source Step = 88.0179%
vernier = 0.00146484
Source Step = 88.0489%
Source Step = 88.0933%
Source Step = 88.1377%
Source Step = 88.1821%
Source Step = 88.2265%
Source Step = 88.2709%
vernier = 0.00219727
Source Step = 88.3375%
Source Step = 88.4041%
Source Step = 88.4706%
Source Step = 88.5372%
Source Step = 88.6038%
vernier = 0.0032959
Source Step = 88.7004%
Source Step = 88.8002%
Source Step = 88.9001%
Source Step = 89%
Source Step = 89.0999%
vernier = 0.00494385
Source Step = 89.2397%
Source Step = 89.3895%
Source Step = 89.5393%
Source Step = 89.6891%
Source Step = 89.8389%
vernier = 0.00741577
Source Step = 90.0412%
Source Step = 90.2659%
Source Step = 90.367%
Source Step = 90.4232%
Source Step = 90.4794%
Source Step = 90.5356%
Source Step = 90.5918%
Source Step = 90.6479%
Source Step = 90.7041%
Source Step = 90.7603%
Source Step = 90.8165%
Source Step = 90.8727%
Source Step = 90.9288%
Source Step = 90.985%
Source Step = 91.0412%
Source Step = 91.0974%
Source Step = 91.1536%
Source Step = 91.2097%
Source Step = 91.2659%
Source Step = 91.3221%
Source Step = 91.3783%
Source Step = 91.4345%
Source Step = 91.4906%
Source Step = 91.5468%
Source Step = 91.603%
Source Step = 91.6592%
Source Step = 91.7154%
Source Step = 91.7715%
Source Step = 91.8277%
Source Step = 91.8839%
Source Step = 91.9401%
Source Step = 91.9963%
Source Step = 92.0524%
Source Step = 92.1086%
Source Step = 92.1648%
Source Step = 92.221%
Source Step = 92.2772%
Source Step = 92.3333%
Source Step = 92.3895%
Source Step = 92.4457%
vernier = 0.00278091
Source Step = 92.5047%
Source Step = 92.589%
Source Step = 92.6732%
Source Step = 92.7575%
Source Step = 92.8418%
Source Step = 92.926%
vernier = 0.00417137
Source Step = 93.0524%
Source Step = 93.1788%
Source Step = 93.3053%
Source Step = 93.4317%
Source Step = 93.5581%
vernier = 0.00625706
Source Step = 93.7414%
Source Step = 93.931%
Source Step = 94.1206%
Source Step = 94.3102%
Source Step = 94.4998%
vernier = 0.00938559
Source Step = 94.7652%
Source Step = 95.0496%
Source Step = 95.3341%
Source Step = 95.6185%
Source Step = 95.9029%
vernier = 0.0140784
Source Step = 96.2868%
Source Step = 96.7135%
Source Step = 97.1401%
Source Step = 97.5667%
Source Step = 97.9933%
vernier = 0.0211176
Source Step = 98.5479%
Source Step = 99.1878%
Source Step = 99.8278%
Source stepping succeeded in finding the operating point.


Date: Wed May 29 12:42:15 2024
Total elapsed time: 1.190 seconds.

tnom = 27
temp = 27
method = trap
totiter = 30195
traniter = 0
tranpoints = 0
accept = 0
rejected = 0
matrix size = 50
fillins = 111
solver = Normal
Matrix Compiler1:     548 opcodes  1.8/1.2/[0.7]
Matrix Compiler2: 6.16 KB object code size  0.6/1.0/[0.5]

