Circuit: * E:\Claudio\Docencia personal\LTSpice\Fuentes\rectificador_mediaonda.asc

.OP point found by inspection.
Changing Tseed to 1e-008
Changing Tseed to 1e-010

Date: Wed Jun 05 12:02:14 2024
Total elapsed time: 9.482 seconds.

tnom = 27
temp = 27
method = modified trap
totiter = 3227353
traniter = 3227353
tranpoints = 521814
accept = 392061
rejected = 129751
matrix size = 9
fillins = 1
solver = Normal
Matrix Compiler1: 404 bytes object code size  0.3/0.2/[0.2]
Matrix Compiler2: 589 bytes object code size  0.2/0.3/[0.2]

