LTspice 24.0.12 for Windows
Circuit: * E:\Claudio\Docencia personal\LTSpice\Fuentes\rectificador_mediaonda2.asc
Start Time: Thu Jun 19 12:24:57 2025
solver = Normal
Maximum thread count: 8
tnom = 27
temp = 27
method = modified trap
.OP point found by inspection.
Total elapsed time: 0.467 seconds.

