Circuit: * E:\Claudio\Docencia personal\LTSpice\Fuentes\regulador clase 3.asc

Direct Newton iteration for .op point succeeded.

Date: Fri Jun 09 14:54:28 2023
Total elapsed time: 0.308 seconds.

tnom = 27
temp = 27
method = trap
totiter = 42
traniter = 0
tranpoints = 0
accept = 0
rejected = 0
matrix size = 24
fillins = 10
solver = Normal
Matrix Compiler1: 2.19 KB object code size
Matrix Compiler2:     176 opcodes
