Circuit: * E:\Claudio\Docencia personal\LTSpice\Fuentes\reguladorx2.asc

Direct Newton iteration failed to find .op point.  (Use ".option noopiter" to skip.)
Starting Gmin stepping
Increasing initial diagonal Gmin to 100
Increasing initial diagonal Gmin to 1000
Gmin = 1000
vernier = 0.5
vernier = 0.25
vernier = 0.125
vernier = 0.0625
Gmin = 836.601
vernier = 0.03125
vernier = 0.015625
vernier = 0.0078125
vernier = 0.00390625
Gmin = 822.125
vernier = 0.00195313
vernier = 0.000976563
vernier = 0.000488281
Gmin = 0
Gmin = 0
Gmin stepping failed

Starting source stepping with srcstepmethod=0
Source Step = 3.0303%
Source Step = 33.3333%
Source Step = 63.6364%
Source Step = 93.9394%
Source stepping succeeded in finding the operating point.


Date: Mon Jul 10 11:39:52 2023
Total elapsed time: 0.488 seconds.

tnom = 27
temp = 27
method = trap
totiter = 26245
traniter = 0
tranpoints = 0
accept = 0
rejected = 0
matrix size = 50
fillins = 77
solver = Normal
Matrix Compiler1:     376 opcodes  1.4/0.9/[0.7]
Matrix Compiler2: 5.61 KB object code size  0.9/1.1/[0.7]

