Circuit: * E:\Claudio\Docencia personal\LTSpice\Fuentes\regulador.asc


Date: Mon Jun 12 10:31:02 2023
Total elapsed time: 0.193 seconds.

tnom = 27
temp = 27
method = trap
totiter = 2839
traniter = 0
tranpoints = 0
accept = 0
rejected = 0
matrix size = 18
fillins = 6
solver = Normal
Matrix Compiler1: 1.60 KB object code size  0.4/0.3/[0.2]
Matrix Compiler2: off  [0.3]/0.3/0.3

