Circuit: * E:\Claudio\Docencia personal\LTSpice\Fuentes\regulador clase 2.asc

Direct Newton iteration for .op point succeeded.

Date: Fri Jun 09 14:19:57 2023
Total elapsed time: 0.284 seconds.

tnom = 27
temp = 27
method = trap
totiter = 41
traniter = 0
tranpoints = 0
accept = 0
rejected = 0
matrix size = 22
fillins = 10
solver = Normal
Matrix Compiler1: 2.38 KB object code size
Matrix Compiler2:     165 opcodes
