Circuit: * E:\Claudio\Docencia personal\LTSpice\Fuentes\regulador2.asc


Date: Tue Oct 31 16:52:54 2023
Total elapsed time: 0.318 seconds.

tnom = 27
temp = 27
method = trap
totiter = 16209
traniter = 0
tranpoints = 0
accept = 0
rejected = 0
matrix size = 24
fillins = 10
solver = Normal
Matrix Compiler1: 2.19 KB object code size  0.6/0.3/[0.2]
Matrix Compiler2: 2.25 KB object code size  0.3/0.4/[0.2]

