Circuit: * E:\Claudio\Docencia personal\LTSpice\Fuentes\regulador1.asc


Date: Fri Jun 09 12:23:31 2023
Total elapsed time: 0.220 seconds.

tnom = 27
temp = 27
method = trap
totiter = 2371
traniter = 0
tranpoints = 0
accept = 0
rejected = 0
matrix size = 22
fillins = 10
solver = Normal
Matrix Compiler1: 2.38 KB object code size  0.6/0.3/[0.3]
Matrix Compiler2: 2.12 KB object code size  0.3/0.4/[0.3]

