Circuit: * E:\Claudio\Docencia personal\LTSpice\Fuentes\zener.asc


Date: Wed May 29 11:11:55 2024
Total elapsed time: 0.216 seconds.

tnom = 27
temp = 27
method = trap
totiter = 5043
traniter = 0
tranpoints = 0
accept = 0
rejected = 0
matrix size = 2
fillins = 0
solver = Normal
Matrix Compiler1:       3 opcodes  0.0/[0.0]/0.1
Matrix Compiler2:      10 opcodes  0.1/[0.1]/0.1

