Circuit: * C:\Users\Salva\Desktop\Universidad Nacional de Mar del Plata\Teoria de Redes\2020\Guia 3\LTSpice\g3_p23.asc

ERROR: Node N001 is floating and connected to current source I2

WARNING: Less than two connections to node VOUT1.  This node is used by R2.
WARNING: Less than two connections to node N002.  This node is used by V1.
WARNING: Less than two connections to node N004.  This node is used by V2.
Ignoring empty pin current: Ix(u1:1)
Ignoring empty pin current: Ix(u1:2)
Direct Newton iteration for .op point succeeded.

Date: Mon Nov 02 19:21:31 2020
Total elapsed time: 0.195 seconds.

tnom = 27
temp = 27
method = trap
totiter = 3
traniter = 0
tranpoints = 0
accept = 0
rejected = 0
matrix size = 8
fillins = 0
solver = Normal
Matrix Compiler1: 174 bytes object code size
Matrix Compiler2: 384 bytes object code size
