Circuit: * C:\Users\Mariano\Desktop\eje2.asc

v1: both pins shorted together -- ignoring.
Early termination of direct N-R iteration.
Direct Newton iteration failed to find .op point.  (Use ".option noopiter" to skip.)
Starting Gmin stepping
Increasing initial diagonal Gmin to 100
Increasing initial diagonal Gmin to 1000
Gmin = 1000
vernier = 0.5
vernier = 0.25
vernier = 0.125
vernier = 0.0625
Gmin = 836.601
vernier = 0.03125
vernier = 0.015625
vernier = 0.0078125
vernier = 0.00390625
Gmin = 822.125
vernier = 0.00195312
vernier = 0.000976562
vernier = 0.000488281
Gmin = 0
Gmin = 0
Gmin stepping succeeded in finding the operating point.


Date: Fri May 30 16:28:50 2025
Total elapsed time: 0.203 seconds.

tnom = 27
temp = 27
method = modified trap
totiter = 10734
traniter = 9174
tranpoints = 2699
accept = 1873
rejected = 826
matrix size = 67
fillins = 154
solver = Normal
Avg thread counts: 1.1/1.4/1.3/1.1
Matrix Compiler1: 10.41 KB object code size  2.2/1.5/[1.5]
Matrix Compiler2: 8.16 KB object code size  0.8/0.7/[0.6]

