Circuit: * C:\Users\Mariano\Desktop\lab3\Draft1.asc

Fatal Error: Unknown subcircuit called in:
   xu2 n004 n002 n003 triac
