Circuit: * E:\Claudio\Docencia personal\LTSpice\ClaseB\audioamp.asc

Direct Newton iteration for .op point succeeded.

Date: Wed Apr 17 13:32:06 2024
Total elapsed time: 0.295 seconds.

tnom = 27
temp = 27
method = trap
totiter = 8
traniter = 0
tranpoints = 0
accept = 0
rejected = 0
matrix size = 43
fillins = 49
solver = Normal
Matrix Compiler1:     328 opcodes
Matrix Compiler2: 4.83 KB object code size
