Circuit: * E:\Claudio\Docencia personal\LTSpice\ClaseB\bootstrap2.asc

Direct Newton iteration for .op point succeeded.

Date: Wed Apr 27 17:11:39 2022
Total elapsed time: 0.143 seconds.

tnom = 27
temp = 27
method = trap
totiter = 3
traniter = 0
tranpoints = 0
accept = 0
rejected = 0
matrix size = 4
fillins = 1
solver = Normal
Matrix Compiler1: 226 bytes object code size
Matrix Compiler2: 290 bytes object code size
