Circuit: * E:\Claudio\Docencia personal\LTSpice\ClaseB\clase b2 .asc

Direct Newton iteration for .op point succeeded.

Date: Thu Apr 21 12:35:41 2022
Total elapsed time: 0.390 seconds.

tnom = 27
temp = 27
method = modified trap
totiter = 20050
traniter = 20044
tranpoints = 10018
accept = 10018
rejected = 0
matrix size = 17
fillins = 4
solver = Normal
Matrix Compiler1: 1.49 KB object code size  0.7/0.4/[0.4]
Matrix Compiler2: 1.57 KB object code size  0.4/0.7/[0.4]

