
   --- Expanded Deck Component Count ---
D's 4
I's 1
Q's 4
R's 3
V's 3
tot: 15


    --- Expanded Netlist ---
* C:\Claudio\Docencia personal\LTSpice\ClaseB\claseab7.asc
v1 n001 0 12
v2 0 n006 12
v3 n003 0 sine(0 10 1000 0 0 0 4) ac 1 0
d1 n002 n005 d
d2 n005 n003 d
r2 n004 0 33
i1 n001 n002 3.1m
q1 n001 n002 n004 0 npn
q2 n006 n003 n004 0 pnp
d3 n007 n009 d
d4 n009 n003 d
r1 n008 0 33
q3 n001 n007 n008 0 npn
q4 n006 n003 n008 0 pnp
r3 n001 n007 330
.model pnp pnp
.model npn npn
.model d d
.tran 0 4m 0 .01m
.end

Direct Newton iteration for .op point succeeded.

Date: Thu Oct 31 17:39:49 2019
Total elapsed time: 0.047 seconds.

tnom = 27
temp = 27
method = modified trap
totiter = 1065
traniter = 1054
tranpoints = 418
accept = 418
rejected = 0
matrix size = 12
fillins = 0
solver = Normal
Matrix Compiler1: 554 bytes object code size  0.4/0.3/[0.1]
Matrix Compiler2: off  [0.2]/0.4/0.4


