Circuit: * E:\Claudio\Docencia personal\LTSpice\ClaseB\clase ab frecuencia 2.asc

Direct Newton iteration for .op point succeeded.

Date: Thu Nov 02 14:38:51 2023
Total elapsed time: 0.410 seconds.

tnom = 27
temp = 27
method = trap
totiter = 12
traniter = 0
tranpoints = 0
accept = 0
rejected = 0
matrix size = 16
fillins = 2
solver = Normal
Matrix Compiler1:      51 opcodes
Matrix Compiler2: 1.24 KB object code size
