
   --- Expanded Deck Component Count ---
D's 4
I's 1
Q's 4
R's 3
V's 4
tot: 16


    --- Expanded Netlist ---
* C:\Claudio\Docencia personal\LTSpice\ClaseB\claseab9.asc
v1 n001 0 12
v2 0 n010 12
v3 n009 0 sine(0 12 1000 0 0 0 100) ac 1 0
q1 n001 n003 n005 0 2n3904
q2 n010 n008 n005 0 2n3906
r6 n005 0 33
d1 n003 n007 1n4148
d2 n007 n008 1n4148
i1 n001 n003 2.5m
v4 n008 n009 -0.62708
q3 n001 n002 n004 0 2n3904
q4 n010 n008 n004 0 2n3906
r1 n004 0 33
d3 n002 n006 1n4148
d4 n006 n008 1n4148
r2 n001 n002 4k7
.model 2n3906 pnp(is=1e-14 vaf=100 bf=200 ikf=0.4 xtb=1.5 br=4 cjc=4.5e-12 cje=10e-12 rb=20 rc=0.1 re=0.1 tr=250e-9 tf=350e-12 itf=1 vtf=2 xtf=3 vceo=40 icrating=200m mfg=philips)
.model 2n3904 npn(is=1e-14 vaf=100 bf=300 ikf=0.4 xtb=1.5 br=4 cjc=4e-12 cje=8e-12 rb=20 rc=0.1 re=0.1 tr=250e-9 tf=350e-12 itf=1 vtf=2 xtf=3 vceo=40 icrating=200m mfg=philips)
.model 1n4148 d(is=2.52n rs=.568 n=1.752 cjo=4p m=.4 tt=20n iave=200m vpk=75 mfg=onsemi type=silicon)
.tran 0 10m 0 .001m
.end

Direct Newton iteration for .op point succeeded.

Date: Tue Jul 31 17:12:21 2018
Total elapsed time: 0.390 seconds.

tnom = 27
temp = 27
method = modified trap
totiter = 20251
traniter = 20243
tranpoints = 10018
accept = 10018
rejected = 0
matrix size = 30
fillins = 2
solver = Normal
Matrix Compiler1: 1,89 KB object code size  1.0/0.9/[0.3]
Matrix Compiler2: 2,49 KB object code size  0.6/0.8/[0.6]


