Circuit: * E:\Claudio\Docencia personal\LTSpice\ClaseB\clase ab respuesta en frecuencia a.asc

Direct Newton iteration for .op point succeeded.

Date: Mon Apr 11 14:54:06 2022
Total elapsed time: 0.371 seconds.

tnom = 27
temp = 27
method = trap
totiter = 17
traniter = 0
tranpoints = 0
accept = 0
rejected = 0
matrix size = 19
fillins = 8
solver = Normal
Matrix Compiler1:      98 opcodes
Matrix Compiler2: 1.78 KB object code size
