
   --- Expanded Deck Component Count ---
D's 2
Q's 2
R's 2
V's 4
tot: 10


    --- Expanded Netlist ---
* C:\Claudio\Docencia personal\LTSpice\ClaseB\claseab9b.asc
v1 n001 0 12
v2 0 n007 12
v3 n006 0 sine(0 9 1000 0 0 0 100) ac 1 0
v4 n005 n006 -0.62708
q3 n001 n002 n003 0 2n3904
q4 n007 n005 n003 0 2n3906
r1 n003 0 33
d3 n002 n004 1n4148
d4 n004 n005 1n4148
r2 n001 n002 1k
.model 2n3906 pnp(is=1e-14 vaf=100 bf=200 ikf=0.4 xtb=1.5 br=4 cjc=4.5e-12 cje=10e-12 rb=20 rc=0.1 re=0.1 tr=250e-9 tf=350e-12 itf=1 vtf=2 xtf=3 vceo=40 icrating=200m mfg=philips)
.model 2n3904 npn(is=1e-14 vaf=100 bf=300 ikf=0.4 xtb=1.5 br=4 cjc=4e-12 cje=8e-12 rb=20 rc=0.1 re=0.1 tr=250e-9 tf=350e-12 itf=1 vtf=2 xtf=3 vceo=40 icrating=200m mfg=philips)
.model 1n4148 d(is=2.52n rs=.568 n=1.752 cjo=4p m=.4 tt=20n iave=200m vpk=75 mfg=onsemi type=silicon)
.tran 0 10m 0 .001m
.end

Direct Newton iteration for .op point succeeded.

Date: Tue Jul 31 17:13:17 2018
Total elapsed time: 0.297 seconds.

tnom = 27
temp = 27
method = modified trap
totiter = 20040
traniter = 20034
tranpoints = 10018
accept = 10018
rejected = 0
matrix size = 19
fillins = 0
solver = Normal
Matrix Compiler1: 1018 bytes object code size  0.5/0.5/[0.2]
Matrix Compiler2: off  [0.3]/0.6/0.4


