Circuit: * E:\Claudio\Docencia personal\LTSpice\ClaseB\claseabteo2.asc

Direct Newton iteration for .op point succeeded.

Date: Wed Jul 31 12:49:55 2024
Total elapsed time: 0.930 seconds.

tnom = 27
temp = 27
method = modified trap
totiter = 203074
traniter = 203069
tranpoints = 100021
accept = 100021
rejected = 0
matrix size = 16
fillins = 7
solver = Normal
Matrix Compiler1: 1.24 KB object code size  0.7/0.4/[0.4]
Matrix Compiler2: 1.32 KB object code size  0.4/0.6/[0.4]

