
   --- Expanded Deck Component Count ---
C's 2
D's 2
I's 1
Q's 3
R's 3
V's 4
tot: 15


    --- Expanded Netlist ---
* C:\Claudio\Docencia personal\LTSpice\ClaseB\claseab5.asc
v1 n001 0 10
v2 0 n008 10
d1 n002 n004 1n4148
d2 n004 n005 1n4148
i1 n001 n002 .02
r1 n003 0 10
r2 n009 n008 100
c1 n009 n008 100”
r3 n007 n010 22k
v3 n010 n008 7.272
c2 n007 n006 10”
v4 n006 0 sine(0 .01 1000)
q1 n001 n002 n003 0 npn
q2 n008 n005 n003 0 pnp
q3 n005 n007 n009 0 npn
.model pnp pnp
.model npn npn
.model 1n4148 d(is=2.52n rs=.568 n=1.752 cjo=4p m=.4 tt=20n iave=200m vpk=75 mfg=onsemi type=silicon)
.tran 0 100m 90m .001m
.end

Direct Newton iteration for .op point succeeded.

Date: Wed Apr 18 12:22:38 2018
Total elapsed time: 1.592 seconds.

tnom = 27
temp = 27
method = modified trap
totiter = 203075
traniter = 203070
tranpoints = 100021
accept = 100021
rejected = 0
matrix size = 16
fillins = 7
solver = Normal
Matrix Compiler1: 1,23 KB object code size  0.5/0.5/[0.3]
Matrix Compiler2: 1,32 KB object code size  0.3/0.5/[0.3]


