Circuit: * E:\Claudio\Docencia personal\LTSpice\ClaseB\clase ab respuesta en frecuencia b.asc


Date: Mon Apr 11 15:05:07 2022
Total elapsed time: 0.237 seconds.

tnom = 27
temp = 27
method = trap
totiter = 0
traniter = 0
tranpoints = 0
accept = 0
rejected = 0
matrix size = 6
fillins = 0
solver = Normal

