Circuit: * E:\Claudio\Docencia personal\LTSpice\ClaseB\clase ab frecuencia 1.asc

Direct Newton iteration for .op point succeeded.

Date: Wed Apr 17 13:33:08 2024
Total elapsed time: 0.409 seconds.

tnom = 27
temp = 27
method = trap
totiter = 10
traniter = 0
tranpoints = 0
accept = 0
rejected = 0
matrix size = 18
fillins = 6
solver = Normal
Matrix Compiler1:      84 opcodes
Matrix Compiler2: 1.58 KB object code size
