
   --- Expanded Deck Component Count ---
C's 2
Q's 4
R's 2
V's 3
tot: 11


    --- Expanded Netlist ---
* C:\Claudio\Docencia personal\LTSpice\ClaseB\claseabteo1.asc
v1 n001 0 12
v2 0 n003 12
v3 n002 0 sine(0 5 1000 0 0 0 4) ac 1 0
r2 vo 0 33
q1 n001 n002 vo 0 npn
q2 n003 n002 vo 0 pnp
r1 n006 0 33
q3 n001 n004 n005 0 npn
q4 0 n004 n005 0 pnp
c1 n006 n005 1000”
c2 n002 n004 1000”
.model pnp pnp
.model npn npn
.tran 0 4m 0 .01m
.end

Direct Newton iteration for .op point succeeded.

Date: Thu Oct 31 17:32:40 2019
Total elapsed time: 0.061 seconds.

tnom = 27
temp = 27
method = modified trap
totiter = 982
traniter = 978
tranpoints = 418
accept = 418
rejected = 0
matrix size = 10
fillins = 0
solver = Normal
Matrix Compiler1: 400 bytes object code size  0.3/0.3/[0.1]
Matrix Compiler2: 776 bytes object code size  0.2/0.3/[0.2]


