Circuit: * E:\Claudio\Docencia personal\LTSpice\ClaseB\clase ab respuesta en frecuencia c.asc

Direct Newton iteration for .op point succeeded.

Date: Mon Apr 11 10:54:13 2022
Total elapsed time: 0.410 seconds.

tnom = 27
temp = 27
method = modified trap
totiter = 20044
traniter = 20034
tranpoints = 10018
accept = 10018
rejected = 0
matrix size = 23
fillins = 4
solver = Normal
Matrix Compiler1: 1.53 KB object code size  0.4/0.2/[0.2]
Matrix Compiler2: off  [0.3]/0.5/0.3

