Circuit: * E:\Claudio\Docencia personal\LTSpice\ClaseB\claseateoria1.asc

Direct Newton iteration for .op point succeeded.

Date: Tue Apr 05 15:24:59 2022
Total elapsed time: 0.273 seconds.

tnom = 27
temp = 27
method = modified trap
totiter = 4039
traniter = 4034
tranpoints = 2018
accept = 2018
rejected = 0
matrix size = 8
fillins = 0
solver = Normal
Matrix Compiler1: 344 bytes object code size  0.3/0.2/[0.1]
Matrix Compiler2: 594 bytes object code size  0.2/0.3/[0.2]

