LTspice 24.0.12 for Windows
Circuit: * E:\Claudio\Docencia personal\LTSpice\ClaseB\clase b darlington 2xx.asc
Start Time: Tue May 13 16:08:55 2025
Warning: Multiple definitions of model "2scr375p" Type: BJT
Warning: Multiple definitions of model "bc857b" Type: BJT
Warning: Multiple definitions of model "bc847c" Type: BJT
Warning: Multiple definitions of model "bc847b" Type: BJT
solver = Normal
Maximum thread count: 8
tnom = 27
temp = 27
method = modified trap
Direct Newton iteration failed to find .op point.  (Use ".option noopiter" to skip.)
Starting Gmin stepping
Gmin = 10
Gmin = 1.07374
vernier = 0.5
vernier = 0.25
vernier = 0.125
vernier = 0.0625
Gmin = 1.12184
vernier = 0.03125
vernier = 0.015625
Gmin = 1.05425
vernier = 0.0078125
Gmin = 1.03188
vernier = 0.0104167
vernier = 0.00520833
vernier = 0.00694444
vernier = 0.00347222
Gmin = 1.02429
vernier = 0.00462963
vernier = 0.00231481
Gmin = 1.01839
vernier = 0.00308642
vernier = 0.00154321
vernier = 0.00205761
Gmin = 1.01479
vernier = 0.00102881
vernier = 0.00137174
Gmin = 1.01227
vernier = 0.00068587
vernier = 0.000914493
Gmin = 1.01048
vernier = 0.000457247
Gmin = 1.0091
vernier = 0.000609662
vernier = 0.000812882
vernier = 0.000406441
Gmin = 1.00796
vernier = 0.000541921
vernier = 0.000406441
Gmin = 1.0071
vernier = 0.000541921
vernier = 0.000406441
vernier = 0.000541921
Gmin = 1.00625
vernier = 0.000406441
Gmin = 0
Gmin stepping failed

Starting source stepping with srcstepmethod=0
Source Step = 3.0303%
Source Step = 33.3333%
Source Step = 63.6364%
Source Step = 93.9394%
Source stepping succeeded in finding the operating point.

Total elapsed time: 1.604 seconds.

