Circuit: * E:\Claudio\Docencia personal\LTSpice\ClaseB\claseab1.asc

Direct Newton iteration for .op point succeeded.

Date: Wed Apr 17 13:36:25 2024
Total elapsed time: 0.322 seconds.

tnom = 27
temp = 27
method = modified trap
totiter = 977
traniter = 971
tranpoints = 418
accept = 418
rejected = 0
matrix size = 12
fillins = 0
solver = Normal
Matrix Compiler1: 536 bytes object code size  0.4/0.2/[0.2]
Matrix Compiler2: 1.04 KB object code size  0.3/0.4/[0.2]

