Circuit: * E:\Claudio\Docencia personal\LTSpice\ClaseB\mosfetb.asc

Warning: Multiple definitions of model "irfp240" Type: Vdmos1
Warning: Multiple definitions of model "irfp9240" Type: Vdmos1
M2: all pins shorted together -- ignoring.

Date: Wed Mar 06 15:21:19 2024
Total elapsed time: 0.394 seconds.

tnom = 27
temp = 27
method = trap
totiter = 20005
traniter = 0
tranpoints = 0
accept = 0
rejected = 0
matrix size = 6
fillins = 0
solver = Normal
Matrix Compiler1: 200 bytes object code size  0.2/0.1/[0.1]
Matrix Compiler2: off  [0.2]/0.3/0.2

