Circuit: * E:\Claudio\Docencia personal\LTSpice\ClaseB\p3 parcial 2023.asc

Direct Newton iteration for .op point succeeded.

Date: Fri May 19 12:46:39 2023
Total elapsed time: 0.491 seconds.

tnom = 27
temp = 27
method = modified trap
totiter = 21936
traniter = 21895
tranpoints = 10558
accept = 10298
rejected = 260
matrix size = 37
fillins = 19
solver = Normal
Matrix Compiler1: 3.93 KB object code size  1.7/0.9/[0.9]
Matrix Compiler2: 3.71 KB object code size  0.9/1.3/[0.4]

