Circuit: * E:\Claudio\Docencia personal\LTSpice\ClaseB\pnp2n3904.asc

.OP point found by inspection.
.step i1=0
.step i1=2e-005
.step i1=4e-005
.step i1=6e-005
.step i1=8e-005
.step i1=0.0001
.step i1=0.00012
.step i1=0.00014
.step i1=0.00016
.step i1=0.00018
.step i1=0.0002

Date: Mon Apr 11 13:28:08 2022
Total elapsed time: 0.712 seconds.

tnom = 27
temp = 27
method = trap
totiter = 220093
traniter = 0
tranpoints = 0
accept = 0
rejected = 0
matrix size = 8
fillins = 0
solver = Normal
Matrix Compiler1:      23 opcodes  0.1/[0.1]/0.1
Matrix Compiler2: off  [0.1]/0.1/0.1

