Circuit: * E:\Claudio\Docencia personal\LTSpice\ClaseB\pnpnpn.asc

.OP point found by inspection.
.step i1=0
.step i1=2e-005
.step i1=4e-005
.step i1=6e-005
.step i1=8e-005
.step i1=0.0001
.step i1=0.00012
.step i1=0.00014
.step i1=0.00016
.step i1=0.00018
.step i1=0.0002

Date: Fri Feb 17 14:14:15 2023
Total elapsed time: 0.905 seconds.

tnom = 27
temp = 27
method = trap
totiter = 220083
traniter = 0
tranpoints = 0
accept = 0
rejected = 0
matrix size = 12
fillins = 0
solver = Normal
Matrix Compiler1: 748 bytes object code size  0.3/0.1/[0.1]
Matrix Compiler2: 954 bytes object code size  0.4/0.2/[0.1]

