Circuit: * E:\Claudio\Docencia personal\LTSpice\ClaseB\teoria3.asc


Date: Mon Apr 18 12:39:04 2022
Total elapsed time: 0.149 seconds.

tnom = 27
temp = 27
method = trap
totiter = 431
traniter = 0
tranpoints = 0
accept = 0
rejected = 0
matrix size = 19
fillins = 6
solver = Normal
Matrix Compiler1: 1.52 KB object code size  0.7/0.5/[0.4]
Matrix Compiler2: off  [0.4]/0.7/0.5

