Circuit: * E:\Claudio\Docencia personal\LTSpice\ClaseB\teoria5.asc


Date: Mon Apr 18 12:41:35 2022
Total elapsed time: 0.425 seconds.

tnom = 27
temp = 27
method = trap
totiter = 60010
traniter = 0
tranpoints = 0
accept = 0
rejected = 0
matrix size = 17
fillins = 0
solver = Normal
Matrix Compiler1: 766 bytes object code size  0.3/0.2/[0.2]
Matrix Compiler2: 1.25 KB object code size  0.2/0.3/[0.2]

