LTspice 24.0.12 for Windows
Circuit: * E:\Claudio\Docencia personal\LTSpice\ClaseB\teoria6.asc
Start Time: Fri Oct 25 11:46:17 2024
Warning: Multiple definitions of model "2scr375p" Type: BJT
Warning: Multiple definitions of model "bc857b" Type: BJT
Warning: Multiple definitions of model "bc847c" Type: BJT
Warning: Multiple definitions of model "bc847b" Type: BJT
solver = Normal
Maximum thread count: 8
tnom = 27
temp = 27
method = modified trap
Total elapsed time: 1.184 seconds.

