Circuit: * E:\Claudio\Docencia personal\LTSpice\ClaseB\teoria2.asc


Date: Mon Jul 29 12:09:21 2024
Total elapsed time: 0.665 seconds.

tnom = 27
temp = 27
method = trap
totiter = 52009
traniter = 0
tranpoints = 0
accept = 0
rejected = 0
matrix size = 13
fillins = 0
solver = Normal
Matrix Compiler1: 692 bytes object code size  0.3/0.2/[0.2]
Matrix Compiler2: 1.01 KB object code size  0.2/0.3/[0.2]

