Circuit: * E:\Claudio\Docencia personal\LTSpice\ClaseB\teoria7.asc

.step a=1000
.step a=10000

Date: Wed Apr 17 13:35:28 2024
Total elapsed time: 0.287 seconds.

tnom = 27
temp = 27
method = trap
totiter = 444
traniter = 0
tranpoints = 0
accept = 0
rejected = 0
matrix size = 19
fillins = 6
solver = Normal
Matrix Compiler1: 1.54 KB object code size  1.0/0.5/[0.4]
Matrix Compiler2: 1.68 KB object code size  0.6/0.7/[0.5]

