Circuit: * E:\Claudio\Docencia personal\LTSpice\ClaseB\tip120 tip125.asc

.OP point found by inspection.
.step i1=0
.step i1=0.0001
.step i1=0.0002
.step i1=0.0003
.step i1=0.0004
.step i1=0.0005
.step i1=0.0006
.step i1=0.0007
.step i1=0.0008
.step i1=0.0009
.step i1=0.001

Date: Wed Apr 17 13:44:55 2024
Total elapsed time: 2.113 seconds.

tnom = 27
temp = 27
method = trap
totiter = 440198
traniter = 0
tranpoints = 0
accept = 0
rejected = 0
matrix size = 22
fillins = 4
solver = Normal
Matrix Compiler1: 1.92 KB object code size  0.5/0.3/[0.3]
Matrix Compiler2: 1.98 KB object code size  0.3/0.4/[0.2]

