Circuit: * E:\Claudio\Docencia personal\LTSpice\ClaseB\tip120 tip125 2.asc


Date: Fri Apr 22 09:43:03 2022
Total elapsed time: 0.899 seconds.

tnom = 27
temp = 27
method = trap
totiter = 160006
traniter = 0
tranpoints = 0
accept = 0
rejected = 0
matrix size = 22
fillins = 0
solver = Normal
Matrix Compiler1: 1.41 KB object code size  0.6/0.3/[0.2]
Matrix Compiler2: 1.95 KB object code size  0.4/0.5/[0.3]

