Circuit: * E:\Claudio\Docencia personal\LTSpice\ClaseB\TIP31TIP32.asc


Date: Wed Apr 17 13:41:47 2024
Total elapsed time: 0.168 seconds.

tnom = 27
temp = 27
method = trap
totiter = 128
traniter = 0
tranpoints = 0
accept = 0
rejected = 0
matrix size = 10
fillins = 0
solver = Normal
Matrix Compiler1: 506 bytes object code size  0.5/0.2/[0.2]
Matrix Compiler2: 774 bytes object code size  0.3/0.4/[0.2]

