Circuit: * C:\Users\Mariano\Documents\Downloads\Lab 1 LTSPICE\lab1_1.asc

Early termination of direct N-R iteration.
Direct Newton iteration failed to find .op point.  (Use ".option noopiter" to skip.)
Starting Gmin stepping
Increasing initial diagonal Gmin to 100
Increasing initial diagonal Gmin to 1000
Gmin = 1000
vernier = 0.5
vernier = 0.25
vernier = 0.125
vernier = 0.0625
Gmin = 836.601
vernier = 0.03125
vernier = 0.015625
vernier = 0.0078125
vernier = 0.00390625
Gmin = 822.125
vernier = 0.00195312
vernier = 0.000976562
vernier = 0.000488281
Gmin = 0
Gmin = 0
Gmin stepping failed

Starting source stepping with srcstepmethod=0
Source Step = 3.0303%
Source Step = 33.3333%
Source Step = 63.6364%
Source Step = 93.9394%
Source stepping succeeded in finding the operating point.

.step a=0
.step a=1.5e-09

Date: Mon Mar 27 14:01:59 2023
Total elapsed time: 0.830 seconds.

tnom = 27
temp = 27
method = modified trap
totiter = 6272
traniter = 4441
tranpoints = 1905
accept = 1690
rejected = 215
matrix size = 69
fillins = 156
solver = Normal
Avg thread counts: 1.0/1.0/1.0/1.0
Matrix Compiler1: 11.55 KB object code size  4.8/3.4/[2.4]
Matrix Compiler2: off  [2.2]/2.7/11.8

