LTspice 24.1.9 for Windows
Circuit: C:\Users\Mariano\Desktop\grupos pt4\G6\proyecto_final.net
Start Time: Thu Dec 11 15:10:32 2025
solver = Normal
Maximum thread count: 12
tnom = 27
temp = 27
method = modified trap
C:\Users\Mariano\Desktop\grupos pt4\G6\proyecto_final.net(10): Limiting rise time to 1.

V4 Transmision 0 PULSE(1 0 2 0 5 10 200)
^^^^^^^^^^^^^^^^^^^^^^^^^^^^^^^^^^^^^^^^
Direct Newton iteration for .op point succeeded.
Total elapsed time: 0.327 seconds.

Files loaded:
C:\Users\Mariano\Desktop\grupos pt4\G6\proyecto_final.net
C:\Users\Mariano\AppData\Local\LTspice\lib\sub\4N25.sub

