LTspice 24.1.9 for Windows
Circuit: C:\Users\Mariano\Desktop\D+I\docencia\Redes 1\Guias\Guia 2\g2_p8.net
Start Time: Tue Aug 19 13:51:42 2025
solver = Normal
Maximum thread count: 12
tnom = 27
temp = 27
method = modified trap
Direct Newton iteration for .op point succeeded.
Total elapsed time: 0.117 seconds.

Files loaded:
C:\Users\Mariano\Desktop\D+I\docencia\Redes 1\Guias\Guia 2\g2_p8.net

