LTspice 24.1.9 for Windows
Circuit: C:\Users\Mariano\Desktop\grupos pt4\G9\Proyecto Transversal IV - Vúmetro-20251212T165727Z-1-001\Proyecto Transversal IV - Vúmetro\Archivos\LTSPICE\Proyecto 4 ltspice.net
Start Time: Fri Dec 12 14:04:07 2025
solver = Normal
Maximum thread count: 12
tnom = 27
temp = 27
method = modified trap
Direct Newton iteration for .op point succeeded.
Total elapsed time: 1.833 seconds.

Files loaded:
C:\Users\Mariano\Desktop\grupos pt4\G9\Proyecto Transversal IV - Vúmetro-20251212T165727Z-1-001\Proyecto Transversal IV - Vúmetro\Archivos\LTSPICE\Proyecto 4 ltspice.net
C:\Users\Mariano\AppData\Local\LTspice\lib\cmp\standard.dio
C:\Users\Mariano\Desktop\D+I\docencia\PT4\lm393.lib
C:\Users\Mariano\Documents\LTspice\LM741.lib

