Circuit: * E:\Claudio\Docencia personal\LTSpice\Varios\2n222.asc


Date: Mon Jun 13 15:58:13 2022
Total elapsed time: 0.157 seconds.

tnom = 27
temp = 27
method = trap
totiter = 505
traniter = 0
tranpoints = 0
accept = 0
rejected = 0
matrix size = 7
fillins = 0
solver = Normal
Matrix Compiler1: 312 bytes object code size  0.3/0.2/[0.2]
Matrix Compiler2: 515 bytes object code size  0.2/0.3/[0.2]

