Circuit: * E:\Claudio\Docencia personal\LTSpice\Varios\741biblioext.asc

Direct Newton iteration for .op point succeeded.

Date: Tue Apr 05 12:54:59 2022
Total elapsed time: 0.360 seconds.

tnom = 27
temp = 27
method = trap
totiter = 12
traniter = 0
tranpoints = 0
accept = 0
rejected = 0
matrix size = 35
fillins = 39
solver = Normal
Matrix Compiler1:     177 opcodes
Matrix Compiler2: 3.44 KB object code size
