
   --- Expanded Deck Component Count ---
B's 2
C's 2
D's 5
G's 2
H's 1
I's 1
Q's 2
R's 10
V's 9
tot: 34


    --- Expanded Netlist ---
* C:\Claudio\Docencia personal\LTSpice\Varios\741propia.asc
c:u1:1 u1:11 u1:12 8.661e-12 
c:u1:2 u1:6 u1:7 30.00e-12 
d:u1:c n003 u1:53 u1:dy 
d:u1:e u1:54 n003 u1:dy 
d:u1:lp u1:90 u1:91 u1:dx 
d:u1:ln u1:92 u1:90 u1:dx 
d:u1:p n004 n001 u1:dx 
b:u1:§egnd u1:99 0 v=.5*v(n001)+.5*v(n004)
b:u1:§fb u1:7 u1:99 i=10.61e6*i(v:u1:b)+-1e3*i(v:u1:c)+1e3*i(v:u1:e)+10e6*i(v:u1:lp)+-10e6*i(v:u1:ln)
g:u1:a u1:6 0 u1:11 u1:12 188.5e-6
g:u1:cm 0 u1:6 u1:10 u1:99 5.961e-9
i:u1:ee u1:10 n004 dc 15.16e-6
h:u1:lim u1:90 0 v:u1:lim 1k
q:u1:1 u1:11 0 u1:13 u1:qx 
q:u1:2 u1:12 n002 u1:14 u1:qx 
r:u1:2 u1:6 u1:9 100.0e3 
r:u1:c1 n001 u1:11 5.305e3 
r:u1:c2 n001 u1:12 5.305e3 
r:u1:e1 u1:13 u1:10 1.836e3 
r:u1:e2 u1:14 u1:10 1.836e3 
r:u1:ee u1:10 u1:99 13.19e6 
r:u1:o1 u1:8 n003 50 
r:u1:o2 u1:7 u1:99 100 
r:u1:p n001 n004 18.16e3 
v:u1:b u1:9 0 dc 0
v:u1:c n001 u1:53 dc 1
v:u1:e u1:54 n004 dc 1
v:u1:lim u1:7 u1:8 dc 0
v:u1:lp u1:91 0 dc 40
v:u1:ln 0 u1:92 dc 40
v1 n001 0 12
v2 0 n004 12
v3 n002 0 0 ac 1
r1 n003 0 10k
.model u1:qx npn(is=800.0e-18 bf=93.75)
.model u1:dy d(is=800.00e-18 rs=1m cjo=10p)
.model u1:dx d(is=800.0e-18 rs=1)
.ac dec 1000 .1 100meg
.end

Direct Newton iteration for .op point succeeded.

Date: Fri Nov 29 10:15:36 2019
Total elapsed time: 0.203 seconds.

tnom = 27
temp = 27
method = trap
totiter = 12
traniter = 0
tranpoints = 0
accept = 0
rejected = 0
matrix size = 35
fillins = 39
solver = Normal
Matrix Compiler1:     177 opcodes
Matrix Compiler2: 3,44 KB object code size

