Circuit: * E:\Claudio\Docencia personal\LTSpice\Varios\amp inst.asc

Direct Newton iteration failed to find .op point.  (Use ".option noopiter" to skip.)
Starting Gmin stepping
Increasing initial diagonal Gmin to 100
Gmin = 100
Gmin = 10.7374
Gmin = 1.15292
Gmin = 0.123794
Gmin = 0.0132923
Gmin = 0.00142725
Gmin = 0.00015325
Gmin = 1.6455e-005
Gmin = 1.76685e-006
Gmin = 1.89714e-007
Gmin = 2.03704e-008
Gmin = 2.18725e-009
Gmin = 2.34854e-010
Gmin = 2.52173e-011
Gmin = 2.70769e-012
Gmin = 2.90735e-013
Gmin = 0
Gmin stepping succeeded in finding the operating point.


Date: Wed May 10 10:49:43 2023
Total elapsed time: 1.888 seconds.

tnom = 27
temp = 27
method = modified trap
totiter = 80752
traniter = 80162
tranpoints = 40082
accept = 40071
rejected = 11
matrix size = 22
fillins = 7
solver = Normal
Matrix Compiler1: 1.19 KB object code size  0.9/0.4/[0.3]
Matrix Compiler2: 2.06 KB object code size  0.5/0.5/[0.3]

