Circuit: * E:\Claudio\Docencia personal\LTSpice\Varios\ao fuente simple.asc

Early termination of direct N-R iteration.
Direct Newton iteration failed to find .op point.  (Use ".option noopiter" to skip.)
Starting Gmin stepping
Increasing initial diagonal Gmin to 100
Increasing initial diagonal Gmin to 1000
Gmin = 1000
vernier = 0.5
vernier = 0.25
vernier = 0.125
vernier = 0.0625
Gmin = 836.601
vernier = 0.03125
vernier = 0.015625
vernier = 0.0078125
vernier = 0.00390625
Gmin = 822.125
vernier = 0.00195313
vernier = 0.000976563
vernier = 0.000488281
Gmin = 0
Gmin = 0
Gmin stepping failed

Starting source stepping with srcstepmethod=0
Source Step = 3.0303%
Source Step = 33.3333%
Source Step = 63.6364%
Source Step = 93.9394%
Source stepping succeeded in finding the operating point.


Date: Wed Sep 18 13:55:54 2024
Total elapsed time: 0.428 seconds.

tnom = 27
temp = 27
method = modified trap
totiter = 5862
traniter = 4036
tranpoints = 2019
accept = 2019
rejected = 0
matrix size = 64
fillins = 219
solver = Normal
Matrix Compiler1: 19.53 KB object code size  7.4/3.5/[2.7]
Matrix Compiler2: 9.03 KB object code size  1.2/1.8/[0.9]

