Circuit: * E:\Claudio\Docencia personal\LTSpice\Varios\audioclasea2.asc

Direct Newton iteration for .op point succeeded.

Date: Wed Jun 05 15:42:54 2024
Total elapsed time: 1.599 seconds.

tnom = 27
temp = 27
method = modified trap
totiter = 200048
traniter = 200041
tranpoints = 100018
accept = 100018
rejected = 0
matrix size = 21
fillins = 9
solver = Normal
Matrix Compiler1: 2.06 KB object code size  0.7/0.4/[0.4]
Matrix Compiler2: off  [0.3]/0.6/0.4

