Circuit: * E:\Claudio\Docencia personal\LTSpice\Varios\autotrafo2.asc

.OP point found by inspection.

Date: Thu May 04 15:41:14 2023
Total elapsed time: 2.011 seconds.

tnom = 27
temp = 27
method = modified trap
totiter = 2036018
traniter = 2036018
tranpoints = 1018010
accept = 1014015
rejected = 3995
matrix size = 10
fillins = 10
solver = Normal
Matrix Compiler1: 902 bytes object code size  0.5/0.3/[0.3]
Matrix Compiler2: off  [0.3]/0.4/0.3

