Circuit: * F:\Vice 21-12-18\Claudio\Docencia personal\LTSpice\Varios\autotrafo1.asc

Number of points reduced from 1000000 to 65535.

Date: Fri Jan 25 11:17:13 2019
Total elapsed time: 3.735 seconds.

tnom = 27
temp = 27
method = trap
totiter = 0
traniter = 0
tranpoints = 0
accept = 0
rejected = 0
matrix size = 6
fillins = 5
solver = Normal

