Circuit: * E:\Claudio\Docencia personal\LTSpice\Varios\biblioexterna.asc

u2:1:vigf: Missing value, assumed 0V @ DC
u2:1:viak: Missing value, assumed 0V @ DC
.OP point found by inspection.

Date: Thu May 04 15:43:58 2023
Total elapsed time: 0.510 seconds.

tnom = 27
temp = 27
method = modified trap
totiter = 25544
traniter = 25544
tranpoints = 11449
accept = 11029
rejected = 420
matrix size = 40
fillins = 21
solver = Normal
Matrix Compiler1: 2.17 KB object code size  1.4/0.7/[0.4]
Matrix Compiler2: 3.01 KB object code size  0.6/1.0/[0.4]

