Circuit: * E:\Claudio\Docencia personal\LTSpice\Varios\Colpitts_caos2.asc

.OP point found by inspection.

Date: Tue Oct 31 16:35:06 2023
Total elapsed time: 2.878 seconds.

tnom = 27
temp = 27
method = modified trap
totiter = 2321409
traniter = 2321409
tranpoints = 385596
accept = 288199
rejected = 97397
matrix size = 12
fillins = 1
solver = Normal
Matrix Compiler1: 504 bytes object code size  0.3/0.2/[0.2]
Matrix Compiler2: 846 bytes object code size  0.2/0.4/[0.2]

