LTspice 24.0.12 for Windows
Circuit: * E:\Claudio\Docencia personal\LTSpice\Varios\Colpitts_caos.asc
Start Time: Thu Oct 31 09:56:34 2024
Warning: Multiple definitions of model "2scr375p" Type: BJT
Warning: Multiple definitions of model "bc857b" Type: BJT
Warning: Multiple definitions of model "bc847c" Type: BJT
Warning: Multiple definitions of model "bc847b" Type: BJT
solver = Normal
Maximum thread count: 8
tnom = 27
temp = 27
method = modified trap
.OP point found by inspection.
Total elapsed time: 1.609 seconds.

