Circuit: * E:\Claudio\Docencia personal\LTSpice\Varios\comparadores3.asc

Direct Newton iteration for .op point succeeded.

Date: Mon Apr 25 16:16:17 2022
Total elapsed time: 0.276 seconds.

tnom = 27
temp = 27
method = modified trap
totiter = 4063
traniter = 4058
tranpoints = 2029
accept = 2028
rejected = 1
matrix size = 7
fillins = 1
solver = Normal
Matrix Compiler1: 178 bytes object code size  0.2/0.1/[0.1]
Matrix Compiler2: off  [0.2]/0.3/0.2

