Circuit: * E:\Claudio\Docencia personal\LTSpice\Varios\comparadores1.asc

Direct Newton iteration failed to find .op point.  (Use ".option noopiter" to skip.)
Starting Gmin stepping
Gmin = 10
Gmin = 1.07374
vernier = 0.5
vernier = 0.25
vernier = 0.125
vernier = 0.0625
Gmin = 1.08884
vernier = 0.03125
vernier = 0.015625
Gmin = 1.03122
vernier = 0.0078125
vernier = 0.0104167
vernier = 0.00520833
Gmin = 1.01988
vernier = 0.00260417
vernier = 0.00347222
Gmin = 1.01305
vernier = 0.00173611
vernier = 0.00231481
vernier = 0.00115741
Gmin = 1.01085
vernier = 0.00154321
vernier = 0.000771604
Gmin = 1.00871
vernier = 0.00102881
vernier = 0.000514403
Gmin = 1.00715
vernier = 0.00068587
vernier = 0.000514403
Gmin = 1.0059
vernier = 0.00068587
vernier = 0.000514402
Gmin = 0
Gmin stepping failed

Starting source stepping with srcstepmethod=0
Source Step = 3.0303%
Source Step = 33.3333%
Source Step = 63.6364%
Source Step = 93.9394%
Source stepping succeeded in finding the operating point.


Date: Mon Apr 25 16:15:20 2022
Total elapsed time: 0.498 seconds.

tnom = 27
temp = 27
method = modified trap
totiter = 12973
traniter = 6613
tranpoints = 3121
accept = 3077
rejected = 44
matrix size = 12
fillins = 0
solver = Normal
Matrix Compiler1: 522 bytes object code size  0.5/0.3/[0.2]
Matrix Compiler2: 1.06 KB object code size  0.4/0.3/[0.2]

