Circuit: * E:\Claudio\Docencia personal\LTSpice\Varios\control.asc

Direct Newton iteration for .op point succeeded.

Date: Thu Nov 02 15:14:33 2023
Total elapsed time: 0.448 seconds.

tnom = 27
temp = 27
method = trap
totiter = 50
traniter = 0
tranpoints = 0
accept = 0
rejected = 0
matrix size = 13
fillins = 4
solver = Normal
Matrix Compiler1:      42 opcodes
Matrix Compiler2:      97 opcodes
