Circuit: * E:\Claudio\Docencia personal\LTSpice\Varios\cristal1.asc

WARNING: Node N001 is floating.


Date: Wed Jun 05 15:52:13 2024
Total elapsed time: 0.212 seconds.

tnom = 27
temp = 27
method = trap
totiter = 0
traniter = 0
tranpoints = 0
accept = 0
rejected = 0
matrix size = 1
fillins = 0
solver = Normal

