Circuit: * E:\Claudio\Docencia personal\LTSpice\Varios\curva de salida tbj.asc

.step v2=-0.4
.step v2=-0.3
.step v2=-0.2
.step v2=-0.1
.step v2=-2.77556e-017
.step v2=0.1
.step v2=0.2
.step v2=0.3
.step v2=0.4
.step v2=0.5
.step v2=0.6
.step v2=0.7
.step v2=0.8

Date: Fri Jul 01 14:45:41 2022
Total elapsed time: 0.937 seconds.

tnom = 27
temp = 27
method = trap
totiter = 39073
traniter = 0
tranpoints = 0
accept = 0
rejected = 0
matrix size = 7
fillins = 0
solver = Normal
Matrix Compiler1: 312 bytes object code size  0.1/0.1/[0.1]
Matrix Compiler2: 515 bytes object code size  0.1/0.1/[0.1]

