Circuit: * E:\Claudio\Docencia personal\LTSpice\Varios\diemte de sierra.asc

Direct Newton iteration for .op point succeeded.

Date: Thu Nov 02 15:16:53 2023
Total elapsed time: 6.760 seconds.

tnom = 27
temp = 27
method = modified trap
totiter = 407123
traniter = 407087
tranpoints = 201956
accept = 201312
rejected = 644
matrix size = 14
fillins = 8
solver = Normal
Matrix Compiler1: 1.20 KB object code size  0.7/0.4/[0.2]
Matrix Compiler2: 1.47 KB object code size  0.4/0.6/[0.2]

