LTspice 24.0.12 for Windows
Circuit: * E:\Claudio\Docencia personal\LTSpice\Varios\dobleparametro.asc
Start Time: Wed Jun 18 13:33:32 2025
solver = Normal
Maximum thread count: 8



.OP point found by inspection.
.step index=0



.step index=1
tnom = 27
temp = 27
method = modified trap
.step index=2
Total elapsed time: 4.826 seconds.

