Circuit: * E:\Claudio\Docencia personal\LTSpice\Varios\Draft5.asc

.OP point found by inspection.

Date: Wed Apr 13 13:34:10 2022
Total elapsed time: 10.916 seconds.

tnom = 27
temp = 27
method = modified trap
totiter = 20000040
traniter = 20000040
tranpoints = 10000021
accept = 10000021
rejected = 0
matrix size = 2
fillins = 0
solver = Normal
Matrix Compiler1:       3 opcodes  0.1/[0.1]/0.1
Matrix Compiler2:      10 opcodes  0.1/[0.1]/0.1

