Circuit: * E:\Claudio\Docencia personal\LTSpice\Varios\Draft2.asc

.OP point found by inspection.

Date: Fri Feb 17 08:12:52 2023
Total elapsed time: 0.280 seconds.

tnom = 27
temp = 27
method = modified trap
totiter = 4034
traniter = 4034
tranpoints = 2018
accept = 2018
rejected = 0
matrix size = 2
fillins = 0
solver = Normal
Matrix Compiler1: off  [0.1]/0.1/0.1
Matrix Compiler2: off  [0.1]/0.1/0.1

