Circuit: * E:\Claudio\Docencia personal\LTSpice\Varios\Draft6.asc

Direct Newton iteration for .op point succeeded.

o: AVG(v(o))=4.99367 FROM 0 TO 100


Date: Wed Aug 07 15:40:33 2024
Total elapsed time: 11.196 seconds.

tnom = 27
temp = 27
method = trap
totiter = 3
traniter = 0
tranpoints = 0
accept = 0
rejected = 0
matrix size = 3
fillins = 0
solver = Normal
Matrix Compiler1: 50 bytes object code size
Matrix Compiler2: 175 bytes object code size
