Circuit: * E:\Claudio\Docencia personal\LTSpice\Varios\e_laplace.asc


Date: Mon Aug 12 14:24:42 2024
Total elapsed time: 0.156 seconds.

tnom = 27
temp = 27
method = trap
totiter = 0
traniter = 0
tranpoints = 0
accept = 0
rejected = 0
matrix size = 5
fillins = 3
solver = Normal

