Circuit: * E:\Claudio\Docencia personal\LTSpice\Varios\ganacia de lazo.asc


Date: Wed Dec 06 09:56:07 2023
Total elapsed time: 0.228 seconds.

tnom = 27
temp = 27
method = trap
totiter = 0
traniter = 0
tranpoints = 0
accept = 0
rejected = 0
matrix size = 14
fillins = 7
solver = Normal

