LTspice 24.0.12 for Windows
Circuit: * E:\Claudio\Docencia personal\LTSpice\Varios\jfet_Rds.asc
Start Time: Wed Oct 30 14:43:26 2024
solver = Normal
Maximum thread count: 8
tnom = 27
temp = 27
method = modified trap
.step v2=-5
.step v2=-4
.step v2=-3
.step v2=-2
.step v2=-1
.step v2=0
Total elapsed time: 0.291 seconds.

