Circuit: * E:\Claudio\Docencia personal\LTSpice\Varios\jfet_transf2.asc

Direct Newton iteration for .op point succeeded.

Date: Fri Oct 25 11:06:57 2024
Total elapsed time: 0.648 seconds.

tnom = 27
temp = 27
method = modified trap
totiter = 22061
traniter = 22049
tranpoints = 10389
accept = 10310
rejected = 79
matrix size = 28
fillins = 2
solver = Normal
Matrix Compiler1: 1.12 KB object code size  0.9/0.5/[0.4]
Matrix Compiler2: 2.12 KB object code size  0.6/1.0/[0.6]

