Circuit: * E:\Claudio\Docencia personal\LTSpice\Varios\llave.asc

Direct Newton iteration for .op point succeeded.

Date: Fri Nov 10 12:05:20 2023
Total elapsed time: 1.352 seconds.

tnom = 27
temp = 27
method = modified trap
totiter = 200057
traniter = 200054
tranpoints = 100018
accept = 100018
rejected = 0
matrix size = 5
fillins = 0
solver = Normal
Matrix Compiler1: 96 bytes object code size  0.1/0.1/[0.1]
Matrix Compiler2: off  [0.1]/0.2/0.2

