Circuit: * E:\Claudio\Docencia personal\LTSpice\Varios\modelo h de tbj.asc

Direct Newton iteration for .op point succeeded.

Date: Mon Dec 11 10:54:42 2023
Total elapsed time: 0.248 seconds.

tnom = 27
temp = 27
method = trap
totiter = 3
traniter = 0
tranpoints = 0
accept = 0
rejected = 0
matrix size = 7
fillins = 1
solver = Normal
Matrix Compiler1: 232 bytes object code size
Matrix Compiler2: 447 bytes object code size
