Circuit: * E:\Claudio\Docencia personal\LTSpice\Varios\montecarlo2.asc

Direct Newton iteration for .op point succeeded.

Date: Wed Aug 14 11:08:58 2024
Total elapsed time: 2.214 seconds.

tnom = 27
temp = 27
method = trap
totiter = 3
traniter = 0
tranpoints = 0
accept = 0
rejected = 0
matrix size = 6
fillins = 1
solver = Normal
Matrix Compiler1: 236 bytes object code size
Matrix Compiler2: 416 bytes object code size
