LTspice 24.0.12 for Windows
Circuit: * E:\Claudio\Docencia personal\LTSpice\Varios\MOS curvas.asc
Start Time: Thu Oct 24 15:18:24 2024
solver = Normal
Maximum thread count: 8
tnom = 27
temp = 27
method = modified trap
Total elapsed time: 0.269 seconds.

