LTspice 24.0.12 for Windows
Circuit: * E:\Claudio\Docencia personal\LTSpice\Varios\noise4.asc
Start Time: Thu Dec  5 10:51:26 2024
solver = Normal
Maximum thread count: 8



Direct Newton iteration for .op point succeeded.
.step temp=-25ḞC



.step temp=0ḞC



.step temp=25ḞC



.step temp=50ḞC



.step temp=75ḞC



.step temp=100ḞC
tnom = 27
temp = 125
method = modified trap
.step temp=125ḞC
Total elapsed time: 0.978 seconds.

