Circuit: * E:\Claudio\Docencia personal\LTSpice\Varios\ondacompleta.asc

Per .tran options, skipping operating point for transient analysis.

Date: Tue May 16 14:34:20 2023
Total elapsed time: 2.307 seconds.

tnom = 27
temp = 27
method = modified trap
totiter = 100397
traniter = 100397
tranpoints = 50095
accept = 50064
rejected = 31
matrix size = 15
fillins = 6
solver = Normal
Matrix Compiler1: 1008 bytes object code size  0.7/0.3/[0.2]
Matrix Compiler2: 1.57 KB object code size  0.5/0.5/[0.3]

