Circuit: * E:\Claudio\Docencia personal\LTSpice\Varios\osc_rc.asc

Direct Newton iteration for .op point succeeded.

Date: Thu Nov 09 14:19:48 2023
Total elapsed time: 0.576 seconds.

tnom = 27
temp = 27
method = modified trap
totiter = 21518
traniter = 21509
tranpoints = 10447
accept = 10287
rejected = 160
matrix size = 15
fillins = 11
solver = Normal
Matrix Compiler1: 1.41 KB object code size  0.8/0.4/[0.3]
Matrix Compiler2: 1.83 KB object code size  0.5/0.6/[0.4]

