Circuit: * E:\Claudio\Docencia personal\LTSpice\Varios\pierce.asc

WARNING: Node N004 is floating.

Per .tran options, skipping operating point for transient analysis.

Date: Tue Jun 07 12:02:02 2022
Total elapsed time: 29.924 seconds.

tnom = 27
temp = 27
method = modified trap
totiter = 20015796
traniter = 20015796
tranpoints = 10000041
accept = 10000037
rejected = 4
matrix size = 9
fillins = 2
solver = Normal
Matrix Compiler1: 726 bytes object code size  0.2/0.2/[0.1]
Matrix Compiler2: off  [0.2]/0.3/0.2

