Circuit: * F:\Vice 21-12-18\Claudio\Docencia personal\LTSpice\Varios\pierce2.asc

WARNING: Node N004 is floating.

Per .tran options, skipping operating point for transient analysis.

Date: Thu Jan 24 00:04:33 2019
Total elapsed time: 416.639 seconds.

tnom = 27
temp = 27
method = modified trap
totiter = 20015797
traniter = 20015797
tranpoints = 10000041
accept = 10000037
rejected = 4
matrix size = 9
fillins = 2
solver = Normal
Matrix Compiler1: 726 bytes object code size  3.1/1.9/[1.8]
Matrix Compiler2: 783 bytes object code size  1.8/2.0/[1.8]

