Circuit: * E:\Claudio\Docencia personal\LTSpice\Varios\pierce1.asc

Unknown node in .ic card: "va" -- ignoring
Per .tran options, skipping operating point for transient analysis.

Date: Tue Jun 07 12:05:18 2022
Total elapsed time: 124.521 seconds.

tnom = 27
temp = 27
method = modified trap
totiter = 100000056
traniter = 100000056
tranpoints = 50000027
accept = 50000027
rejected = 0
matrix size = 9
fillins = 0
solver = Normal
Matrix Compiler1: 608 bytes object code size  0.2/0.1/[0.1]
Matrix Compiler2: 749 bytes object code size  0.1/0.2/[0.1]

