
   --- Expanded Deck Component Count ---
E's 1
R's 6
V's 1
tot: 8


    --- Expanded Netlist ---
* C:\Claudio\Docencia personal\LTSpice\Varios\prueba real1.asc
e1 n003 0 n002 n004 100
r1 a n003 100
r2 0 a 1k
r3 n004 n002 50k
r4 n001 n002 1k
r5 n004 a 9k
r6 n004 0 1k
v1 n001 0 1
.tf v(a) v1
.end

Direct Newton iteration for .op point succeeded.

Date: Fri Nov 08 12:10:07 2019
Total elapsed time: 0.000 seconds.

tnom = 27
temp = 27
method = trap
totiter = 3
traniter = 0
tranpoints = 0
accept = 0
rejected = 0
matrix size = 7
fillins = 1
solver = Normal
Matrix Compiler1: 322 bytes object code size
Matrix Compiler2: 489 bytes object code size

