
   --- Expanded Deck Component Count ---
G's 2
R's 6
V's 1
tot: 9


    --- Expanded Netlist ---
* C:\Claudio\Docencia personal\LTSpice\Varios\prueba real3_1.asc
r2 o 0 140
r3 o n002 10k
r4 n002 n003 1k
v2 n003 0 0 ac 1
r5 0 n002 45900
g1 n001 0 n002 0 0.006536
r6 o n001 898
g2 o a n001 o -0.3341
r1 0 a 500
.tf v(o) v2
.end

Direct Newton iteration for .op point succeeded.

Date: Mon Nov 11 17:32:37 2019
Total elapsed time: 0.000 seconds.

tnom = 27
temp = 27
method = trap
totiter = 3
traniter = 0
tranpoints = 0
accept = 0
rejected = 0
matrix size = 6
fillins = 0
solver = Normal
Matrix Compiler1: 222 bytes object code size
Matrix Compiler2: 408 bytes object code size

