Circuit: * E:\Claudio\Docencia personal\LTSpice\Varios\rect_preci13.asc


Date: Wed May 08 10:31:21 2024
Total elapsed time: 0.498 seconds.

tnom = 27
temp = 27
method = trap
totiter = 20033
traniter = 0
tranpoints = 0
accept = 0
rejected = 0
matrix size = 17
fillins = 10
solver = Normal
Matrix Compiler1: 1.53 KB object code size  1.4/0.6/[0.4]
Matrix Compiler2: 2.09 KB object code size  0.8/1.1/[0.5]

