Circuit: * E:\Claudio\Docencia personal\LTSpice\Varios\retardo2.asc

Direct Newton iteration for .op point succeeded.

Date: Tue May 10 12:44:37 2022
Total elapsed time: 0.139 seconds.

tnom = 27
temp = 27
method = trap
totiter = 3
traniter = 0
tranpoints = 0
accept = 0
rejected = 0
matrix size = 11
fillins = 8
solver = Normal
Matrix Compiler1: 664 bytes object code size
Matrix Compiler2: 823 bytes object code size
