Circuit: * E:\Claudio\Docencia personal\LTSpice\Varios\salida pot clasa A.asc


Date: Tue Oct 31 16:40:21 2023
Total elapsed time: 0.422 seconds.

tnom = 27
temp = 27
method = trap
totiter = 48016
traniter = 0
tranpoints = 0
accept = 0
rejected = 0
matrix size = 17
fillins = 2
solver = Normal
Matrix Compiler1: 1.13 KB object code size  0.4/0.2/[0.2]
Matrix Compiler2: 1.41 KB object code size  0.2/0.3/[0.2]

