LTspice 24.0.12 for Windows
Circuit: * E:\Claudio\Docencia personal\LTSpice\Varios\sinto simple2.asc
Start Time: Fri Mar 28 11:46:27 2025
Number of points per decade reduced from 100000 to 63652.
solver = Normal
Maximum thread count: 8
tnom = 27
temp = 27
method = modified trap
.OP point found by inspection.
Total elapsed time: 1.328 seconds.

