Circuit: * E:\Claudio\Docencia personal\LTSpice\Varios\tip41_1.asc


Date: Tue May 17 12:03:34 2022
Total elapsed time: 0.152 seconds.

tnom = 27
temp = 27
method = trap
totiter = 451
traniter = 0
tranpoints = 0
accept = 0
rejected = 0
matrix size = 10
fillins = 0
solver = Normal
Matrix Compiler1: 506 bytes object code size  0.3/0.1/[0.1]
Matrix Compiler2: 774 bytes object code size  0.2/0.3/[0.1]

