Circuit: * E:\Claudio\Docencia personal\LTSpice\Varios\triangular3.asc

Per .tran options, skipping operating point for transient analysis.

Date: Mon May 06 15:57:39 2024
Total elapsed time: 0.251 seconds.

tnom = 27
temp = 27
method = modified trap
totiter = 20085
traniter = 20085
tranpoints = 10018
accept = 10018
rejected = 0
matrix size = 7
fillins = 3
solver = Normal
Matrix Compiler1:      23 opcodes  0.3/[0.2]/0.2
Matrix Compiler2: off  [0.3]/0.3/0.3

