LTspice 24.0.12 for Windows
Circuit: * E:\Claudio\Docencia personal\LTSpice\Varios\tripleparametro.asc
Start Time: Wed Jun 18 13:50:03 2025
solver = Normal
Maximum thread count: 8



.OP point found by inspection.
.step index=0



.step index=1
tnom = 27
temp = 27
method = modified trap
.step index=2
Total elapsed time: 0.848 seconds.

