LTspice 24.1.9 for Windows
Circuit: C:\Users\maria\Desktop\ACTIVIDADES PT-IV\PT-LTSPICE\ACTIVIDAD4-NTC.net
Start Time: Thu Sep 25 13:42:19 2025
solver = Normal
Maximum thread count: 16
tnom = 27
temp = -55
method = trap
Direct Newton iteration for .op point succeeded.
Total elapsed time: 2.646 seconds.

Files loaded:
C:\Users\maria\Desktop\ACTIVIDADES PT-IV\PT-LTSPICE\ACTIVIDAD4-NTC.net

