LTspice 24.1.9 for Windows
Circuit: C:\Users\maria\Desktop\ACTIVIDADES PT-IV\PT-LTSPICE\ACTIVIDAD4-LDR.net
Start Time: Thu Sep 25 13:42:06 2025
solver = Normal
Maximum thread count: 16
tnom = 27
temp = 27
method = trap
Direct Newton iteration for .op point succeeded.
Total elapsed time: 0.871 seconds.

Files loaded:
C:\Users\maria\Desktop\ACTIVIDADES PT-IV\PT-LTSPICE\ACTIVIDAD4-LDR.net

