LTspice 24.1.9 for Windows
Circuit: C:\Users\maria\Desktop\ACTIVIDADES PT-IV\PT-SPICE\Circuitos-Serie-Paralelo.net
Start Time: Thu Sep 18 12:21:55 2025
solver = Normal
Maximum thread count: 16
tnom = 27
temp = 27
method = trap
.OP point found by inspection.
Total elapsed time: 9.258 seconds.

Files loaded:
C:\Users\maria\Desktop\ACTIVIDADES PT-IV\PT-SPICE\Circuitos-Serie-Paralelo.net

