LTspice 24.1.9 for Windows
Circuit: C:\Users\maria\Desktop\ACTIVIDADES PT-IV\PT-SPICE\DACR2R_DC.net
Start Time: Thu Sep 11 16:02:18 2025
solver = Normal
Maximum thread count: 16
tnom = 27
temp = 27
method = trap
Direct Newton iteration for .op point succeeded.
Total elapsed time: 1.833 seconds.

Files loaded:
C:\Users\maria\Desktop\ACTIVIDADES PT-IV\PT-SPICE\DACR2R_DC.net
C:\Users\maria\Desktop\ACTIVIDADES PT-IV\PT-SPICE\LM741.lib

