LTspice 24.1.9 for Windows
Circuit: C:\Users\maria\Desktop\ACTIVIDADES PT-IV\PT-LTSPICE\Draft1.net
Start Time: Thu Oct  2 13:36:30 2025
solver = Normal
Maximum thread count: 16
tnom = 27
temp = 27
method = trap
Direct Newton iteration for .op point succeeded.
Total elapsed time: 0.129 seconds.

Files loaded:
C:\Users\maria\Desktop\ACTIVIDADES PT-IV\PT-LTSPICE\Draft1.net
C:\Users\maria\AppData\Local\LTspice\lib\cmp\standard.mos

