LTspice 24.1.9 for Windows
Circuit: C:\Users\maria\Desktop\PT-SPICE\LED.net
Start Time: Thu Aug 21 11:19:15 2025
solver = Normal
Maximum thread count: 16
tnom = 27
temp = 27
method = trap
.OP point found by inspection.
.step r=100
.step r=150
.step r=200
Total elapsed time: 0.436 seconds.

Files loaded:
C:\Users\maria\Desktop\PT-SPICE\LED.net
C:\Users\maria\AppData\Local\LTspice\lib\cmp\standard.dio
C:\Users\maria\Desktop\PT-SPICE\leds.lib

