Circuit: * C:\Users\Mariano\Desktop\simulacion_eje2_3erparcial.asc

Warning: Multiple definitions of model "2scr375p" Type: BJT
Warning: Multiple definitions of model "bc857b" Type: BJT
Warning: Multiple definitions of model "bc847c" Type: BJT
Warning: Multiple definitions of model "bc847b" Type: BJT
.OP point found by inspection.

Date: Thu Jun 22 18:15:50 2023
Total elapsed time: 9.363 seconds.

tnom = 27
temp = 27
method = modified trap
totiter = 4594842
traniter = 4594842
tranpoints = 2295173
accept = 1634832
rejected = 660341
matrix size = 11
fillins = 2
solver = Normal
Avg thread counts: 1.0/1.0/1.0/1.0
Matrix Compiler1: 672 bytes object code size  0.3/0.3/[0.3]
Matrix Compiler2: 881 bytes object code size  0.3/0.3/[0.2]

