Circuit: * C:\Users\Mariano\Desktop\D+I\docencia\circuitos1\LTspice\Simulaciones\LTspice\ej_g1\g1_9.asc

Direct Newton iteration for .op point succeeded.

Date: Mon Mar 18 13:49:47 2024
Total elapsed time: 0.092 seconds.

tnom = 27
temp = 27
method = trap
totiter = 3
traniter = 0
tranpoints = 0
accept = 0
rejected = 0
matrix size = 10
fillins = 7
solver = Normal
Avg thread counts: 12.0/0.0/12.0/12.0
Matrix Compiler1: 560 bytes object code size
Matrix Compiler2: 780 bytes object code size
