LTspice 24.1.9 for Windows
Circuit: C:\Users\maria\Desktop\ACTIVIDADES PT-IV\ACTIVIDAD5-RELE.net
Start Time: Thu Oct  2 12:49:57 2025
solver = Normal
Maximum thread count: 16
tnom = 27
temp = 27
method = trap
Per .tran options, skipping operating point for transient analysis.
Total elapsed time: 1.066 seconds.

Files loaded:
C:\Users\maria\Desktop\ACTIVIDADES PT-IV\ACTIVIDAD5-RELE.net
C:\Users\maria\AppData\Local\LTspice\lib\cmp\standard.dio
C:\Users\maria\Desktop\ACTIVIDADES PT-IV\PT-LTSPICE\leds.lib

